MODEL 1
REMARK VINA RESULT:      -7.2      0.000      0.000
REMARK  0 active torsions:
REMARK  status: ('A' for Active; 'I' for Inactive)
ROOT
HETATM    1  C   UNK N   1      30.715 -18.098 -76.064  0.00  0.00    -0.032 C 
HETATM    2  C   UNK N   1      32.251 -18.109 -75.824  0.00  0.00     0.003 C 
HETATM    3  C   UNK N   1      32.881 -18.912 -77.021  0.00  0.00    -0.036 C 
HETATM    4  C   UNK N   1      31.676 -19.051 -78.011  0.00  0.00     0.022 C 
HETATM    5  C   UNK N   1      30.500 -19.268 -77.047  0.00  0.00     0.020 C 
HETATM    6  C   UNK N   1      30.083 -18.326 -74.657  0.00  0.00    -0.010 C 
HETATM    7  C   UNK N   1      32.415 -18.623 -74.386  0.00  0.00     0.006 C 
HETATM    8  C   UNK N   1      30.254 -16.784 -76.792  0.00  0.00     0.014 C 
HETATM    9  C   UNK N   1      31.222 -17.967 -73.697  0.00  0.00     0.005 C 
HETATM   10  C   UNK N   1      31.353 -17.784 -78.811  0.00  0.00    -0.084 C 
HETATM   11  C   UNK N   1      31.085 -16.501 -78.055  0.00  0.00     0.034 C 
HETATM   12  C   UNK N   1      33.360 -20.335 -76.604  0.00  0.00     0.016 C 
HETATM   13  C   UNK N   1      34.117 -18.213 -77.630  0.00  0.00     0.016 C 
HETATM   14  C   UNK N   1      28.766 -17.607 -74.345  0.00  0.00     0.011 C 
HETATM   15  C   UNK N   1      31.279 -17.818 -80.147  0.00  0.00     0.014 C 
ENDROOT
TORSDOF 0
ENDMDL
MODEL 2
REMARK VINA RESULT:      -6.9      1.193      3.164
REMARK  0 active torsions:
REMARK  status: ('A' for Active; 'I' for Inactive)
ROOT
HETATM    1  C   UNK N   1      32.087 -18.549 -76.124  0.00  0.00    -0.032 C 
HETATM    2  C   UNK N   1      30.682 -18.516 -76.791  0.00  0.00     0.003 C 
HETATM    3  C   UNK N   1      30.890 -17.915 -78.230  0.00  0.00    -0.036 C 
HETATM    4  C   UNK N   1      32.448 -17.921 -78.382  0.00  0.00     0.022 C 
HETATM    5  C   UNK N   1      32.904 -17.546 -76.964  0.00  0.00     0.020 C 
HETATM    6  C   UNK N   1      31.846 -18.099 -74.652  0.00  0.00    -0.010 C 
HETATM    7  C   UNK N   1      29.789 -17.786 -75.778  0.00  0.00     0.006 C 
HETATM    8  C   UNK N   1      32.767 -19.956 -76.284  0.00  0.00     0.014 C 
HETATM    9  C   UNK N   1      30.341 -18.315 -74.457  0.00  0.00     0.005 C 
HETATM   10  C   UNK N   1      33.059 -19.294 -78.683  0.00  0.00    -0.084 C 
HETATM   11  C   UNK N   1      32.758 -20.441 -77.744  0.00  0.00     0.034 C 
HETATM   12  C   UNK N   1      30.375 -16.450 -78.350  0.00  0.00     0.016 C 
HETATM   13  C   UNK N   1      30.148 -18.713 -79.328  0.00  0.00     0.016 C 
HETATM   14  C   UNK N   1      32.706 -18.747 -73.561  0.00  0.00     0.011 C 
HETATM   15  C   UNK N   1      33.864 -19.468 -79.739  0.00  0.00     0.014 C 
ENDROOT
TORSDOF 0
ENDMDL
MODEL 3
REMARK VINA RESULT:      -6.8      1.726      5.049
REMARK  0 active torsions:
REMARK  status: ('A' for Active; 'I' for Inactive)
ROOT
HETATM    1  C   UNK N   1      32.486 -19.317 -79.181  0.00  0.00    -0.032 C 
HETATM    2  C   UNK N   1      31.697 -18.082 -79.700  0.00  0.00     0.003 C 
HETATM    3  C   UNK N   1      30.477 -17.894 -78.726  0.00  0.00    -0.036 C 
HETATM    4  C   UNK N   1      30.826 -18.866 -77.549  0.00  0.00     0.022 C 
HETATM    5  C   UNK N   1      31.457 -20.050 -78.296  0.00  0.00     0.020 C 
HETATM    6  C   UNK N   1      32.897 -20.102 -80.463  0.00  0.00    -0.010 C 
HETATM    7  C   UNK N   1      31.452 -18.374 -81.187  0.00  0.00     0.006 C 
HETATM    8  C   UNK N   1      33.681 -18.890 -78.254  0.00  0.00     0.014 C 
HETATM    9  C   UNK N   1      32.760 -19.058 -81.577  0.00  0.00     0.005 C 
HETATM   10  C   UNK N   1      31.895 -18.346 -76.582  0.00  0.00    -0.084 C 
HETATM   11  C   UNK N   1      33.234 -17.924 -77.143  0.00  0.00     0.034 C 
HETATM   12  C   UNK N   1      29.125 -18.335 -79.363  0.00  0.00     0.016 C 
HETATM   13  C   UNK N   1      30.276 -16.424 -78.288  0.00  0.00     0.016 C 
HETATM   14  C   UNK N   1      34.253 -20.816 -80.454  0.00  0.00     0.011 C 
HETATM   15  C   UNK N   1      31.659 -18.294 -75.265  0.00  0.00     0.014 C 
ENDROOT
TORSDOF 0
ENDMDL
MODEL 4
REMARK VINA RESULT:      -6.6      1.384      3.941
REMARK  0 active torsions:
REMARK  status: ('A' for Active; 'I' for Inactive)
ROOT
HETATM    1  C   UNK N   1      30.618 -18.450 -78.465  0.00  0.00    -0.032 C 
HETATM    2  C   UNK N   1      31.688 -19.366 -77.808  0.00  0.00     0.003 C 
HETATM    3  C   UNK N   1      32.466 -18.469 -76.776  0.00  0.00    -0.036 C 
HETATM    4  C   UNK N   1      31.584 -17.177 -76.713  0.00  0.00     0.022 C 
HETATM    5  C   UNK N   1      31.141 -17.027 -78.176  0.00  0.00     0.020 C 
HETATM    6  C   UNK N   1      30.626 -18.836 -79.976  0.00  0.00    -0.010 C 
HETATM    7  C   UNK N   1      32.437 -19.998 -78.991  0.00  0.00     0.006 C 
HETATM    8  C   UNK N   1      29.224 -18.590 -77.754  0.00  0.00     0.014 C 
HETATM    9  C   UNK N   1      31.299 -20.213 -79.984  0.00  0.00     0.005 C 
HETATM   10  C   UNK N   1      30.302 -17.314 -75.885  0.00  0.00    -0.084 C 
HETATM   11  C   UNK N   1      29.334 -18.425 -76.228  0.00  0.00     0.034 C 
HETATM   12  C   UNK N   1      33.893 -18.085 -77.268  0.00  0.00     0.016 C 
HETATM   13  C   UNK N   1      32.665 -19.161 -75.408  0.00  0.00     0.016 C 
HETATM   14  C   UNK N   1      29.291 -18.799 -80.725  0.00  0.00     0.011 C 
HETATM   15  C   UNK N   1      30.029 -16.452 -74.897  0.00  0.00     0.014 C 
ENDROOT
TORSDOF 0
ENDMDL
MODEL 5
REMARK VINA RESULT:      -6.5      5.936      8.770
REMARK  0 active torsions:
REMARK  status: ('A' for Active; 'I' for Inactive)
ROOT
HETATM    1  C   UNK N   1      34.565 -21.037 -84.176  0.00  0.00    -0.032 C 
HETATM    2  C   UNK N   1      35.285 -21.915 -83.115  0.00  0.00     0.003 C 
HETATM    3  C   UNK N   1      35.536 -20.987 -81.869  0.00  0.00    -0.036 C 
HETATM    4  C   UNK N   1      34.676 -19.724 -82.206  0.00  0.00     0.022 C 
HETATM    5  C   UNK N   1      34.882 -19.597 -83.722  0.00  0.00     0.020 C 
HETATM    6  C   UNK N   1      35.214 -21.433 -85.537  0.00  0.00    -0.010 C 
HETATM    7  C   UNK N   1      36.476 -22.531 -83.863  0.00  0.00     0.006 C 
HETATM    8  C   UNK N   1      33.005 -21.217 -84.110  0.00  0.00     0.014 C 
HETATM    9  C   UNK N   1      35.864 -22.788 -85.237  0.00  0.00     0.005 C 
HETATM   10  C   UNK N   1      33.169 -19.895 -81.987  0.00  0.00    -0.084 C 
HETATM   11  C   UNK N   1      32.463 -21.038 -82.682  0.00  0.00     0.034 C 
HETATM   12  C   UNK N   1      37.028 -20.562 -81.727  0.00  0.00     0.016 C 
HETATM   13  C   UNK N   1      35.162 -21.664 -80.530  0.00  0.00     0.016 C 
HETATM   14  C   UNK N   1      34.314 -21.444 -86.777  0.00  0.00     0.011 C 
HETATM   15  C   UNK N   1      32.486 -19.035 -81.220  0.00  0.00     0.014 C 
ENDROOT
TORSDOF 0
ENDMDL
MODEL 6
REMARK VINA RESULT:      -6.5      1.621      3.068
REMARK  0 active torsions:
REMARK  status: ('A' for Active; 'I' for Inactive)
ROOT
HETATM    1  C   UNK N   1      31.403 -18.468 -77.579  0.00  0.00    -0.032 C 
HETATM    2  C   UNK N   1      32.278 -18.489 -78.864  0.00  0.00     0.003 C 
HETATM    3  C   UNK N   1      31.381 -19.106 -80.000  0.00  0.00    -0.036 C 
HETATM    4  C   UNK N   1      29.960 -19.122 -79.343  0.00  0.00     0.022 C 
HETATM    5  C   UNK N   1      30.290 -19.491 -77.889  0.00  0.00     0.020 C 
HETATM    6  C   UNK N   1      32.363 -18.902 -76.429  0.00  0.00    -0.010 C 
HETATM    7  C   UNK N   1      33.573 -19.197 -78.442  0.00  0.00     0.006 C 
HETATM    8  C   UNK N   1      30.713 -17.072 -77.374  0.00  0.00     0.014 C 
HETATM    9  C   UNK N   1      33.756 -18.663 -77.023  0.00  0.00     0.005 C 
HETATM   10  C   UNK N   1      29.258 -17.761 -79.295  0.00  0.00    -0.084 C 
HETATM   11  C   UNK N   1      29.974 -16.601 -78.638  0.00  0.00     0.034 C 
HETATM   12  C   UNK N   1      31.789 -20.565 -80.362  0.00  0.00     0.016 C 
HETATM   13  C   UNK N   1      31.452 -18.308 -81.323  0.00  0.00     0.016 C 
HETATM   14  C   UNK N   1      32.163 -18.255 -75.055  0.00  0.00     0.011 C 
HETATM   15  C   UNK N   1      28.027 -17.607 -79.798  0.00  0.00     0.014 C 
ENDROOT
TORSDOF 0
ENDMDL
MODEL 7
REMARK VINA RESULT:      -6.2      1.869      2.807
REMARK  0 active torsions:
REMARK  status: ('A' for Active; 'I' for Inactive)
ROOT
HETATM    1  C   UNK N   1      31.560 -18.864 -78.335  0.00  0.00    -0.032 C 
HETATM    2  C   UNK N   1      33.097 -18.885 -78.572  0.00  0.00     0.003 C 
HETATM    3  C   UNK N   1      33.372 -20.055 -79.587  0.00  0.00    -0.036 C 
HETATM    4  C   UNK N   1      31.933 -20.428 -80.077  0.00  0.00     0.022 C 
HETATM    5  C   UNK N   1      31.111 -20.268 -78.790  0.00  0.00     0.020 C 
HETATM    6  C   UNK N   1      31.391 -18.607 -76.806  0.00  0.00    -0.010 C 
HETATM    7  C   UNK N   1      33.707 -18.933 -77.164  0.00  0.00     0.006 C 
HETATM    8  C   UNK N   1      30.847 -17.819 -79.265  0.00  0.00     0.014 C 
HETATM    9  C   UNK N   1      32.749 -18.030 -76.392  0.00  0.00     0.005 C 
HETATM   10  C   UNK N   1      31.331 -19.457 -81.099  0.00  0.00    -0.084 C 
HETATM   11  C   UNK N   1      31.248 -17.990 -80.741  0.00  0.00     0.034 C 
HETATM   12  C   UNK N   1      34.015 -21.301 -78.908  0.00  0.00     0.016 C 
HETATM   13  C   UNK N   1      34.338 -19.650 -80.724  0.00  0.00     0.016 C 
HETATM   14  C   UNK N   1      30.199 -17.755 -76.358  0.00  0.00     0.011 C 
HETATM   15  C   UNK N   1      30.861 -19.902 -82.272  0.00  0.00     0.014 C 
ENDROOT
TORSDOF 0
ENDMDL
MODEL 8
REMARK VINA RESULT:      -6.2      4.966      7.567
REMARK  0 active torsions:
REMARK  status: ('A' for Active; 'I' for Inactive)
ROOT
HETATM    1  C   UNK N   1      33.310 -19.832 -82.238  0.00  0.00    -0.032 C 
HETATM    2  C   UNK N   1      33.125 -21.195 -82.964  0.00  0.00     0.003 C 
HETATM    3  C   UNK N   1      34.416 -21.412 -83.836  0.00  0.00    -0.036 C 
HETATM    4  C   UNK N   1      35.373 -20.288 -83.315  0.00  0.00     0.022 C 
HETATM    5  C   UNK N   1      34.396 -19.127 -83.077  0.00  0.00     0.020 C 
HETATM    6  C   UNK N   1      31.912 -19.147 -82.302  0.00  0.00    -0.010 C 
HETATM    7  C   UNK N   1      31.752 -21.091 -83.642  0.00  0.00     0.006 C 
HETATM    8  C   UNK N   1      33.888 -20.024 -80.790  0.00  0.00     0.014 C 
HETATM    9  C   UNK N   1      30.960 -20.312 -82.595  0.00  0.00     0.005 C 
HETATM   10  C   UNK N   1      36.033 -20.581 -81.962  0.00  0.00    -0.084 C 
HETATM   11  C   UNK N   1      35.146 -20.911 -80.782  0.00  0.00     0.034 C 
HETATM   12  C   UNK N   1      34.159 -21.193 -85.356  0.00  0.00     0.016 C 
HETATM   13  C   UNK N   1      34.996 -22.839 -83.708  0.00  0.00     0.016 C 
HETATM   14  C   UNK N   1      31.485 -18.291 -81.105  0.00  0.00     0.011 C 
HETATM   15  C   UNK N   1      37.363 -20.519 -81.821  0.00  0.00     0.014 C 
ENDROOT
TORSDOF 0
ENDMDL
MODEL 9
REMARK VINA RESULT:      -6.1      8.913     11.648
REMARK  0 active torsions:
REMARK  status: ('A' for Active; 'I' for Inactive)
ROOT
HETATM    1  C   UNK N   1      38.512 -23.885 -83.898  0.00  0.00    -0.032 C 
HETATM    2  C   UNK N   1      37.719 -22.614 -83.482  0.00  0.00     0.003 C 
HETATM    3  C   UNK N   1      37.494 -22.722 -81.928  0.00  0.00    -0.036 C 
HETATM    4  C   UNK N   1      38.432 -23.910 -81.529  0.00  0.00     0.022 C 
HETATM    5  C   UNK N   1      38.267 -24.858 -82.726  0.00  0.00     0.020 C 
HETATM    6  C   UNK N   1      37.871 -24.338 -85.245  0.00  0.00    -0.010 C 
HETATM    7  C   UNK N   1      36.512 -22.581 -84.430  0.00  0.00     0.006 C 
HETATM    8  C   UNK N   1      40.057 -23.606 -83.961  0.00  0.00     0.014 C 
HETATM    9  C   UNK N   1      37.139 -23.081 -85.729  0.00  0.00     0.005 C 
HETATM   10  C   UNK N   1      39.922 -23.557 -81.459  0.00  0.00    -0.084 C 
HETATM   11  C   UNK N   1      40.577 -22.941 -82.675  0.00  0.00     0.034 C 
HETATM   12  C   UNK N   1      36.026 -23.089 -81.558  0.00  0.00     0.016 C 
HETATM   13  C   UNK N   1      37.799 -21.402 -81.183  0.00  0.00     0.016 C 
HETATM   14  C   UNK N   1      38.796 -24.953 -86.300  0.00  0.00     0.011 C 
HETATM   15  C   UNK N   1      40.635 -23.815 -80.355  0.00  0.00     0.014 C 
ENDROOT
TORSDOF 0
ENDMDL
