MODEL 1
REMARK VINA RESULT:      -6.7      0.000      0.000
REMARK  3 active torsions:
REMARK  status: ('A' for Active; 'I' for Inactive)
REMARK    1  A    between atoms: O_1  and  C_9 
REMARK    2  A    between atoms: O_1  and  C_13 
REMARK    3  A    between atoms: C_3  and  C_7 
ROOT
HETATM    1  C   UNK N   1      30.642 -17.442 -75.536  0.00  0.00    -0.027 A 
HETATM    2  C   UNK N   1      29.419 -17.718 -74.682  0.00  0.00     0.026 A 
HETATM    3  C   UNK N   1      30.101 -16.326 -74.668  0.00  0.00     0.020 A 
HETATM    4  C   UNK N   1      31.763 -18.346 -74.982  0.00  0.00     0.047 C 
HETATM    5  C   UNK N   1      29.900 -18.525 -73.531  0.00  0.00    -0.055 C 
HETATM    6  C   UNK N   1      31.364 -18.822 -73.572  0.00  0.00     0.161 C 
HETATM    7  C   UNK N   1      29.086 -18.935 -72.554  0.00  0.00     0.017 C 
ENDROOT
BRANCH   6   8
HETATM    8  O   UNK N   1      32.023 -18.117 -72.578  0.00  0.00    -0.312 OA
BRANCH   8   9
HETATM    9  C   UNK N   1      32.647 -18.736 -71.534  0.00  0.00     0.255 C 
HETATM   10  O   UNK N   1      32.594 -18.272 -70.409  0.00  0.00    -0.266 OA
HETATM   11  C   UNK N   1      33.406 -20.001 -71.777  0.00  0.00     0.126 C 
ENDBRANCH   8   9
ENDBRANCH   6   8
BRANCH   1  12
HETATM   12  C   UNK N   1      30.445 -17.407 -77.080  0.00  0.00    -0.013 C 
HETATM   13  C   UNK N   1      31.749 -17.281 -77.887  0.00  0.00     0.010 C 
HETATM   14  C   UNK N   1      29.633 -18.621 -77.539  0.00  0.00     0.010 C 
ENDBRANCH   1  12
TORSDOF 3
ENDMDL
MODEL 2
REMARK VINA RESULT:      -6.5      2.961      5.341
REMARK  3 active torsions:
REMARK  status: ('A' for Active; 'I' for Inactive)
REMARK    1  A    between atoms: O_1  and  C_9 
REMARK    2  A    between atoms: O_1  and  C_13 
REMARK    3  A    between atoms: C_3  and  C_7 
ROOT
HETATM    1  C   UNK N   1      30.825 -18.143 -75.654  0.00  0.00    -0.027 A 
HETATM    2  C   UNK N   1      30.401 -17.067 -76.636  0.00  0.00     0.026 A 
HETATM    3  C   UNK N   1      29.661 -18.429 -76.578  0.00  0.00     0.020 A 
HETATM    4  C   UNK N   1      32.245 -18.574 -76.079  0.00  0.00     0.047 C 
HETATM    5  C   UNK N   1      31.411 -17.090 -77.726  0.00  0.00    -0.055 C 
HETATM    6  C   UNK N   1      32.494 -18.099 -77.524  0.00  0.00     0.161 C 
HETATM    7  C   UNK N   1      31.339 -16.279 -78.785  0.00  0.00     0.017 C 
ENDROOT
BRANCH   6   8
HETATM    8  O   UNK N   1      32.365 -19.130 -78.441  0.00  0.00    -0.312 OA
BRANCH   8   9
HETATM    9  C   UNK N   1      33.442 -19.789 -78.956  0.00  0.00     0.255 C 
HETATM   10  O   UNK N   1      34.040 -20.623 -78.300  0.00  0.00    -0.266 OA
HETATM   11  C   UNK N   1      33.894 -19.482 -80.348  0.00  0.00     0.126 C 
ENDBRANCH   8   9
ENDBRANCH   6   8
BRANCH   1  12
HETATM   12  C   UNK N   1      30.583 -17.867 -74.140  0.00  0.00    -0.013 C 
HETATM   13  C   UNK N   1      29.266 -18.439 -73.590  0.00  0.00     0.010 C 
HETATM   14  C   UNK N   1      31.778 -18.351 -73.314  0.00  0.00     0.010 C 
ENDBRANCH   1  12
TORSDOF 3
ENDMDL
MODEL 3
REMARK VINA RESULT:      -6.0      3.754      6.344
REMARK  3 active torsions:
REMARK  status: ('A' for Active; 'I' for Inactive)
REMARK    1  A    between atoms: O_1  and  C_9 
REMARK    2  A    between atoms: O_1  and  C_13 
REMARK    3  A    between atoms: C_3  and  C_7 
ROOT
HETATM    1  C   UNK N   1      31.448 -17.925 -76.413  0.00  0.00    -0.027 A 
HETATM    2  C   UNK N   1      32.212 -19.210 -76.669  0.00  0.00     0.026 A 
HETATM    3  C   UNK N   1      32.925 -17.835 -76.727  0.00  0.00     0.020 A 
HETATM    4  C   UNK N   1      30.426 -17.799 -77.563  0.00  0.00     0.047 C 
HETATM    5  C   UNK N   1      31.837 -19.640 -78.041  0.00  0.00    -0.055 C 
HETATM    6  C   UNK N   1      30.855 -18.735 -78.710  0.00  0.00     0.161 C 
HETATM    7  C   UNK N   1      32.345 -20.737 -78.611  0.00  0.00     0.017 C 
ENDROOT
BRANCH   6   8
HETATM    8  O   UNK N   1      31.467 -18.045 -79.744  0.00  0.00    -0.312 OA
BRANCH   8   9
HETATM    9  C   UNK N   1      31.211 -18.317 -81.056  0.00  0.00     0.255 C 
HETATM   10  O   UNK N   1      31.985 -17.971 -81.931  0.00  0.00    -0.266 OA
HETATM   11  C   UNK N   1      29.961 -19.051 -81.424  0.00  0.00     0.126 C 
ENDBRANCH   8   9
ENDBRANCH   6   8
BRANCH   1  12
HETATM   12  C   UNK N   1      30.931 -17.675 -74.965  0.00  0.00    -0.013 C 
HETATM   13  C   UNK N   1      29.462 -18.065 -74.735  0.00  0.00     0.010 C 
HETATM   14  C   UNK N   1      31.846 -18.364 -73.948  0.00  0.00     0.010 C 
ENDBRANCH   1  12
TORSDOF 3
ENDMDL
MODEL 4
REMARK VINA RESULT:      -6.0      2.346      5.403
REMARK  3 active torsions:
REMARK  status: ('A' for Active; 'I' for Inactive)
REMARK    1  A    between atoms: O_1  and  C_9 
REMARK    2  A    between atoms: O_1  and  C_13 
REMARK    3  A    between atoms: C_3  and  C_7 
ROOT
HETATM    1  C   UNK N   1      34.101 -20.592 -72.506  0.00  0.00    -0.027 A 
HETATM    2  C   UNK N   1      33.876 -20.070 -71.099  0.00  0.00     0.026 A 
HETATM    3  C   UNK N   1      33.207 -21.384 -71.576  0.00  0.00     0.020 A 
HETATM    4  C   UNK N   1      33.466 -19.554 -73.455  0.00  0.00     0.047 C 
HETATM    5  C   UNK N   1      32.919 -18.941 -71.233  0.00  0.00    -0.055 C 
HETATM    6  C   UNK N   1      32.505 -18.664 -72.642  0.00  0.00     0.161 C 
HETATM    7  C   UNK N   1      32.474 -18.251 -70.179  0.00  0.00     0.017 C 
ENDROOT
BRANCH   6   8
HETATM    8  O   UNK N   1      31.180 -19.021 -72.831  0.00  0.00    -0.312 OA
BRANCH   8   9
HETATM    9  C   UNK N   1      30.363 -18.364 -73.704  0.00  0.00     0.255 C 
HETATM   10  O   UNK N   1      30.823 -17.696 -74.612  0.00  0.00    -0.266 OA
HETATM   11  C   UNK N   1      28.880 -18.467 -73.540  0.00  0.00     0.126 C 
ENDBRANCH   8   9
ENDBRANCH   6   8
BRANCH   1  12
HETATM   12  C   UNK N   1      35.528 -21.108 -72.859  0.00  0.00    -0.013 C 
HETATM   13  C   UNK N   1      36.310 -21.686 -71.668  0.00  0.00     0.010 C 
HETATM   14  C   UNK N   1      35.459 -22.115 -74.009  0.00  0.00     0.010 C 
ENDBRANCH   1  12
TORSDOF 3
ENDMDL
MODEL 5
REMARK VINA RESULT:      -5.8      9.045     11.595
REMARK  3 active torsions:
REMARK  status: ('A' for Active; 'I' for Inactive)
REMARK    1  A    between atoms: O_1  and  C_9 
REMARK    2  A    between atoms: O_1  and  C_13 
REMARK    3  A    between atoms: C_3  and  C_7 
ROOT
HETATM    1  C   UNK N   1      39.340 -25.978 -74.723  0.00  0.00    -0.027 A 
HETATM    2  C   UNK N   1      38.229 -25.186 -74.060  0.00  0.00     0.026 A 
HETATM    3  C   UNK N   1      37.943 -26.561 -74.716  0.00  0.00     0.020 A 
HETATM    4  C   UNK N   1      39.797 -25.140 -75.936  0.00  0.00     0.047 C 
HETATM    5  C   UNK N   1      37.885 -24.095 -75.008  0.00  0.00    -0.055 C 
HETATM    6  C   UNK N   1      38.710 -24.096 -76.254  0.00  0.00     0.161 C 
HETATM    7  C   UNK N   1      36.920 -23.205 -74.757  0.00  0.00     0.017 C 
ENDROOT
BRANCH   6   8
HETATM    8  O   UNK N   1      37.934 -24.468 -77.341  0.00  0.00    -0.312 OA
BRANCH   8   9
HETATM    9  C   UNK N   1      38.082 -23.900 -78.573  0.00  0.00     0.255 C 
HETATM   10  O   UNK N   1      37.407 -22.944 -78.907  0.00  0.00    -0.266 OA
HETATM   11  C   UNK N   1      39.088 -24.465 -79.524  0.00  0.00     0.126 C 
ENDBRANCH   8   9
ENDBRANCH   6   8
BRANCH   1  12
HETATM   12  C   UNK N   1      40.447 -26.569 -73.801  0.00  0.00    -0.013 C 
HETATM   13  C   UNK N   1      40.653 -28.086 -73.943  0.00  0.00     0.010 C 
HETATM   14  C   UNK N   1      41.765 -25.816 -74.003  0.00  0.00     0.010 C 
ENDBRANCH   1  12
TORSDOF 3
ENDMDL
MODEL 6
REMARK VINA RESULT:      -5.5     11.901     14.037
REMARK  3 active torsions:
REMARK  status: ('A' for Active; 'I' for Inactive)
REMARK    1  A    between atoms: O_1  and  C_9 
REMARK    2  A    between atoms: O_1  and  C_13 
REMARK    3  A    between atoms: C_3  and  C_7 
ROOT
HETATM    1  C   UNK N   1      40.095 -26.485 -75.072  0.00  0.00    -0.027 A 
HETATM    2  C   UNK N   1      40.218 -27.571 -76.123  0.00  0.00     0.026 A 
HETATM    3  C   UNK N   1      39.204 -27.703 -74.958  0.00  0.00     0.020 A 
HETATM    4  C   UNK N   1      41.440 -26.466 -74.316  0.00  0.00     0.047 C 
HETATM    5  C   UNK N   1      41.461 -28.316 -75.795  0.00  0.00    -0.055 C 
HETATM    6  C   UNK N   1      42.186 -27.784 -74.602  0.00  0.00     0.161 C 
HETATM    7  C   UNK N   1      41.876 -29.368 -76.508  0.00  0.00     0.017 C 
ENDROOT
BRANCH   6   8
HETATM    8  O   UNK N   1      42.090 -28.676 -73.546  0.00  0.00    -0.312 OA
BRANCH   8   9
HETATM    9  C   UNK N   1      43.183 -29.282 -72.999  0.00  0.00     0.255 C 
HETATM   10  O   UNK N   1      43.165 -29.693 -71.853  0.00  0.00    -0.266 OA
HETATM   11  C   UNK N   1      44.422 -29.444 -73.823  0.00  0.00     0.126 C 
ENDBRANCH   8   9
ENDBRANCH   6   8
BRANCH   1  12
HETATM   12  C   UNK N   1      39.506 -25.115 -75.522  0.00  0.00    -0.013 C 
HETATM   13  C   UNK N   1      39.217 -25.010 -77.029  0.00  0.00     0.010 C 
HETATM   14  C   UNK N   1      38.259 -24.777 -74.701  0.00  0.00     0.010 C 
ENDBRANCH   1  12
TORSDOF 3
ENDMDL
MODEL 7
REMARK VINA RESULT:      -5.5      2.841      4.686
REMARK  3 active torsions:
REMARK  status: ('A' for Active; 'I' for Inactive)
REMARK    1  A    between atoms: O_1  and  C_9 
REMARK    2  A    between atoms: O_1  and  C_13 
REMARK    3  A    between atoms: C_3  and  C_7 
ROOT
HETATM    1  C   UNK N   1      30.600 -19.056 -79.202  0.00  0.00    -0.027 A 
HETATM    2  C   UNK N   1      32.005 -19.001 -78.632  0.00  0.00     0.026 A 
HETATM    3  C   UNK N   1      31.122 -20.263 -78.453  0.00  0.00     0.020 A 
HETATM    4  C   UNK N   1      29.786 -17.992 -78.435  0.00  0.00     0.047 C 
HETATM    5  C   UNK N   1      31.918 -18.151 -77.417  0.00  0.00    -0.055 C 
HETATM    6  C   UNK N   1      30.549 -17.618 -77.149  0.00  0.00     0.161 C 
HETATM    7  C   UNK N   1      32.978 -17.901 -76.642  0.00  0.00     0.017 C 
ENDROOT
BRANCH   6   8
HETATM    8  O   UNK N   1      30.009 -18.227 -76.028  0.00  0.00    -0.312 OA
BRANCH   8   9
HETATM    9  C   UNK N   1      29.593 -17.517 -74.939  0.00  0.00     0.255 C 
HETATM   10  O   UNK N   1      29.819 -16.324 -74.844  0.00  0.00    -0.266 OA
HETATM   11  C   UNK N   1      28.848 -18.217 -73.848  0.00  0.00     0.126 C 
ENDBRANCH   8   9
ENDBRANCH   6   8
BRANCH   1  12
HETATM   12  C   UNK N   1      30.455 -19.089 -80.752  0.00  0.00    -0.013 C 
HETATM   13  C   UNK N   1      29.079 -18.645 -81.274  0.00  0.00     0.010 C 
HETATM   14  C   UNK N   1      31.577 -18.278 -81.407  0.00  0.00     0.010 C 
ENDBRANCH   1  12
TORSDOF 3
ENDMDL
MODEL 8
REMARK VINA RESULT:      -5.5      2.568      4.074
REMARK  3 active torsions:
REMARK  status: ('A' for Active; 'I' for Inactive)
REMARK    1  A    between atoms: O_1  and  C_9 
REMARK    2  A    between atoms: O_1  and  C_13 
REMARK    3  A    between atoms: C_3  and  C_7 
ROOT
HETATM    1  C   UNK N   1      32.410 -18.730 -73.005  0.00  0.00    -0.027 A 
HETATM    2  C   UNK N   1      31.974 -19.533 -71.793  0.00  0.00     0.026 A 
HETATM    3  C   UNK N   1      32.716 -18.182 -71.628  0.00  0.00     0.020 A 
HETATM    4  C   UNK N   1      33.473 -19.586 -73.725  0.00  0.00     0.047 C 
HETATM    5  C   UNK N   1      32.941 -20.655 -71.680  0.00  0.00    -0.055 C 
HETATM    6  C   UNK N   1      33.984 -20.664 -72.750  0.00  0.00     0.161 C 
HETATM    7  C   UNK N   1      32.874 -21.562 -70.701  0.00  0.00     0.017 C 
ENDROOT
BRANCH   6   8
HETATM    8  O   UNK N   1      35.221 -20.339 -72.217  0.00  0.00    -0.312 OA
BRANCH   8   9
HETATM    9  C   UNK N   1      36.343 -21.071 -72.473  0.00  0.00     0.255 C 
HETATM   10  O   UNK N   1      36.276 -22.269 -72.683  0.00  0.00    -0.266 OA
HETATM   11  C   UNK N   1      37.674 -20.390 -72.495  0.00  0.00     0.126 C 
ENDBRANCH   8   9
ENDBRANCH   6   8
BRANCH   1  12
HETATM   12  C   UNK N   1      31.292 -18.089 -73.879  0.00  0.00    -0.013 C 
HETATM   13  C   UNK N   1      31.476 -18.282 -75.393  0.00  0.00     0.010 C 
HETATM   14  C   UNK N   1      29.915 -18.584 -73.428  0.00  0.00     0.010 C 
ENDBRANCH   1  12
TORSDOF 3
ENDMDL
MODEL 9
REMARK VINA RESULT:      -5.3      4.767      7.195
REMARK  3 active torsions:
REMARK  status: ('A' for Active; 'I' for Inactive)
REMARK    1  A    between atoms: O_1  and  C_9 
REMARK    2  A    between atoms: O_1  and  C_13 
REMARK    3  A    between atoms: C_3  and  C_7 
ROOT
HETATM    1  C   UNK N   1      31.910 -19.091 -78.522  0.00  0.00    -0.027 A 
HETATM    2  C   UNK N   1      31.396 -18.772 -79.913  0.00  0.00     0.026 A 
HETATM    3  C   UNK N   1      30.994 -20.088 -79.199  0.00  0.00     0.020 A 
HETATM    4  C   UNK N   1      33.438 -19.261 -78.660  0.00  0.00     0.047 C 
HETATM    5  C   UNK N   1      32.532 -19.027 -80.836  0.00  0.00    -0.055 C 
HETATM    6  C   UNK N   1      33.779 -19.477 -80.147  0.00  0.00     0.161 C 
HETATM    7  C   UNK N   1      32.430 -18.868 -82.159  0.00  0.00     0.017 C 
ENDROOT
BRANCH   6   8
HETATM    8  O   UNK N   1      34.031 -20.809 -80.436  0.00  0.00    -0.312 OA
BRANCH   8   9
HETATM    9  C   UNK N   1      35.273 -21.263 -80.770  0.00  0.00     0.255 C 
HETATM   10  O   UNK N   1      35.877 -22.030 -80.042  0.00  0.00    -0.266 OA
HETATM   11  C   UNK N   1      35.900 -20.810 -82.050  0.00  0.00     0.126 C 
ENDBRANCH   8   9
ENDBRANCH   6   8
BRANCH   1  12
HETATM   12  C   UNK N   1      31.390 -18.211 -77.347  0.00  0.00    -0.013 C 
HETATM   13  C   UNK N   1      32.327 -18.155 -76.129  0.00  0.00     0.010 C 
HETATM   14  C   UNK N   1      31.054 -16.803 -77.845  0.00  0.00     0.010 C 
ENDBRANCH   1  12
TORSDOF 3
ENDMDL
