MODEL 1
REMARK VINA RESULT:      -5.9      0.000      0.000
REMARK  3 active torsions:
REMARK  status: ('A' for Active; 'I' for Inactive)
REMARK    1  A    between atoms: C_3  and  C_5 
REMARK    2  A    between atoms: C_4  and  C_6 
REMARK    3  A    between atoms: C_6  and  C_10 
ROOT
HETATM    1  O   UNK N   1      33.300 -19.991 -72.627  0.00  0.00    -0.319 OA
HETATM    2  C   UNK N   1      32.453 -18.997 -72.455  0.00  0.00     0.053 A 
HETATM    3  C   UNK N   1      33.999 -20.142 -71.523  0.00  0.00     0.060 A 
HETATM    4  C   UNK N   1      32.588 -18.486 -71.180  0.00  0.00     0.035 A 
HETATM    5  C   UNK N   1      33.584 -19.223 -70.579  0.00  0.00     0.035 A 
ENDROOT
BRANCH   3   6
HETATM    6  C   UNK N   1      35.118 -21.129 -71.349  0.00  0.00     0.142 C 
BRANCH   6   7
HETATM    7  C   UNK N   1      36.384 -20.753 -72.072  0.00  0.00     0.129 C 
HETATM    8  O   UNK N   1      36.419 -20.703 -73.293  0.00  0.00    -0.298 OA
HETATM    9  C   UNK N   1      37.620 -20.460 -71.276  0.00  0.00     0.091 C 
ENDBRANCH   6   7
ENDBRANCH   3   6
BRANCH   2  10
HETATM   10  C   UNK N   1      31.525 -18.476 -73.511  0.00  0.00     0.060 C 
HETATM   11  C   UNK N   1      32.193 -18.432 -74.878  0.00  0.00     0.012 C 
ENDBRANCH   2  10
TORSDOF 3
ENDMDL
MODEL 2
REMARK VINA RESULT:      -5.9      1.367      1.911
REMARK  3 active torsions:
REMARK  status: ('A' for Active; 'I' for Inactive)
REMARK    1  A    between atoms: C_3  and  C_5 
REMARK    2  A    between atoms: C_4  and  C_6 
REMARK    3  A    between atoms: C_6  and  C_10 
ROOT
HETATM    1  O   UNK N   1      33.903 -20.197 -71.181  0.00  0.00    -0.319 OA
HETATM    2  C   UNK N   1      33.113 -19.841 -72.174  0.00  0.00     0.053 A 
HETATM    3  C   UNK N   1      34.881 -20.932 -71.667  0.00  0.00     0.060 A 
HETATM    4  C   UNK N   1      33.601 -20.347 -73.361  0.00  0.00     0.035 A 
HETATM    5  C   UNK N   1      34.739 -21.050 -73.036  0.00  0.00     0.035 A 
ENDROOT
BRANCH   3   6
HETATM    6  C   UNK N   1      35.948 -21.588 -70.839  0.00  0.00     0.142 C 
BRANCH   6   7
HETATM    7  C   UNK N   1      37.314 -21.569 -71.472  0.00  0.00     0.129 C 
HETATM    8  O   UNK N   1      37.681 -22.479 -72.200  0.00  0.00    -0.298 OA
HETATM    9  C   UNK N   1      38.238 -20.425 -71.182  0.00  0.00     0.091 C 
ENDBRANCH   6   7
ENDBRANCH   3   6
BRANCH   2  10
HETATM   10  C   UNK N   1      31.849 -19.050 -72.013  0.00  0.00     0.060 C 
HETATM   11  C   UNK N   1      31.412 -18.412 -73.324  0.00  0.00     0.012 C 
ENDBRANCH   2  10
TORSDOF 3
ENDMDL
MODEL 3
REMARK VINA RESULT:      -5.8      1.510      4.839
REMARK  3 active torsions:
REMARK  status: ('A' for Active; 'I' for Inactive)
REMARK    1  A    between atoms: C_3  and  C_5 
REMARK    2  A    between atoms: C_4  and  C_6 
REMARK    3  A    between atoms: C_6  and  C_10 
ROOT
HETATM    1  O   UNK N   1      35.163 -21.071 -71.404  0.00  0.00    -0.319 OA
HETATM    2  C   UNK N   1      36.165 -21.424 -72.184  0.00  0.00     0.053 A 
HETATM    3  C   UNK N   1      34.099 -20.874 -72.154  0.00  0.00     0.060 A 
HETATM    4  C   UNK N   1      35.738 -21.478 -73.494  0.00  0.00     0.035 A 
HETATM    5  C   UNK N   1      34.408 -21.124 -73.476  0.00  0.00     0.035 A 
ENDROOT
BRANCH   3   6
HETATM    6  C   UNK N   1      32.773 -20.392 -71.641  0.00  0.00     0.142 C 
BRANCH   6   7
HETATM    7  C   UNK N   1      32.515 -18.930 -71.889  0.00  0.00     0.129 C 
HETATM    8  O   UNK N   1      32.829 -18.087 -71.062  0.00  0.00    -0.298 OA
HETATM    9  C   UNK N   1      31.842 -18.512 -73.163  0.00  0.00     0.091 C 
ENDBRANCH   6   7
ENDBRANCH   3   6
BRANCH   2  10
HETATM   10  C   UNK N   1      37.566 -21.673 -71.709  0.00  0.00     0.060 C 
HETATM   11  C   UNK N   1      38.201 -20.414 -71.137  0.00  0.00     0.012 C 
ENDBRANCH   2  10
TORSDOF 3
ENDMDL
MODEL 4
REMARK VINA RESULT:      -5.5      2.042      5.214
REMARK  3 active torsions:
REMARK  status: ('A' for Active; 'I' for Inactive)
REMARK    1  A    between atoms: C_3  and  C_5 
REMARK    2  A    between atoms: C_4  and  C_6 
REMARK    3  A    between atoms: C_6  and  C_10 
ROOT
HETATM    1  O   UNK N   1      32.803 -19.657 -73.230  0.00  0.00    -0.319 OA
HETATM    2  C   UNK N   1      33.220 -19.720 -71.982  0.00  0.00     0.053 A 
HETATM    3  C   UNK N   1      32.095 -18.558 -73.380  0.00  0.00     0.060 A 
HETATM    4  C   UNK N   1      32.785 -18.609 -71.290  0.00  0.00     0.035 A 
HETATM    5  C   UNK N   1      32.060 -17.860 -72.189  0.00  0.00     0.035 A 
ENDROOT
BRANCH   3   6
HETATM    6  C   UNK N   1      31.388 -18.165 -74.646  0.00  0.00     0.142 C 
BRANCH   6   7
HETATM    7  C   UNK N   1      30.045 -17.522 -74.423  0.00  0.00     0.129 C 
HETATM    8  O   UNK N   1      29.858 -16.347 -74.702  0.00  0.00    -0.298 OA
HETATM    9  C   UNK N   1      28.935 -18.336 -73.830  0.00  0.00     0.091 C 
ENDBRANCH   6   7
ENDBRANCH   3   6
BRANCH   2  10
HETATM   10  C   UNK N   1      34.004 -20.859 -71.402  0.00  0.00     0.060 C 
HETATM   11  C   UNK N   1      35.295 -21.105 -72.169  0.00  0.00     0.012 C 
ENDBRANCH   2  10
TORSDOF 3
ENDMDL
MODEL 5
REMARK VINA RESULT:      -5.5      2.841      5.647
REMARK  3 active torsions:
REMARK  status: ('A' for Active; 'I' for Inactive)
REMARK    1  A    between atoms: C_3  and  C_5 
REMARK    2  A    between atoms: C_4  and  C_6 
REMARK    3  A    between atoms: C_6  and  C_10 
ROOT
HETATM    1  O   UNK N   1      32.436 -18.697 -74.069  0.00  0.00    -0.319 OA
HETATM    2  C   UNK N   1      31.561 -18.798 -73.089  0.00  0.00     0.053 A 
HETATM    3  C   UNK N   1      31.824 -18.210 -75.127  0.00  0.00     0.060 A 
HETATM    4  C   UNK N   1      30.330 -18.344 -73.515  0.00  0.00     0.035 A 
HETATM    5  C   UNK N   1      30.498 -17.966 -74.828  0.00  0.00     0.035 A 
ENDROOT
BRANCH   3   6
HETATM    6  C   UNK N   1      32.468 -18.014 -76.470  0.00  0.00     0.142 C 
BRANCH   6   7
HETATM    7  C   UNK N   1      31.501 -18.038 -77.623  0.00  0.00     0.129 C 
HETATM    8  O   UNK N   1      31.052 -19.094 -78.044  0.00  0.00    -0.298 OA
HETATM    9  C   UNK N   1      31.106 -16.746 -78.273  0.00  0.00     0.091 C 
ENDBRANCH   6   7
ENDBRANCH   3   6
BRANCH   2  10
HETATM   10  C   UNK N   1      31.861 -19.373 -71.736  0.00  0.00     0.060 C 
HETATM   11  C   UNK N   1      32.871 -18.528 -70.975  0.00  0.00     0.012 C 
ENDBRANCH   2  10
TORSDOF 3
ENDMDL
MODEL 6
REMARK VINA RESULT:      -5.3      2.377      3.908
REMARK  3 active torsions:
REMARK  status: ('A' for Active; 'I' for Inactive)
REMARK    1  A    between atoms: C_3  and  C_5 
REMARK    2  A    between atoms: C_4  and  C_6 
REMARK    3  A    between atoms: C_6  and  C_10 
ROOT
HETATM    1  O   UNK N   1      32.260 -18.685 -74.276  0.00  0.00    -0.319 OA
HETATM    2  C   UNK N   1      31.876 -18.169 -75.426  0.00  0.00     0.053 A 
HETATM    3  C   UNK N   1      31.240 -18.659 -73.444  0.00  0.00     0.060 A 
HETATM    4  C   UNK N   1      30.547 -17.806 -75.352  0.00  0.00     0.035 A 
HETATM    5  C   UNK N   1      30.137 -18.121 -74.076  0.00  0.00     0.035 A 
ENDROOT
BRANCH   3   6
HETATM    6  C   UNK N   1      31.300 -19.096 -72.008  0.00  0.00     0.142 C 
BRANCH   6   7
HETATM    7  C   UNK N   1      32.695 -19.354 -71.504  0.00  0.00     0.129 C 
HETATM    8  O   UNK N   1      33.319 -18.487 -70.910  0.00  0.00    -0.298 OA
HETATM    9  C   UNK N   1      33.327 -20.689 -71.757  0.00  0.00     0.091 C 
ENDBRANCH   6   7
ENDBRANCH   3   6
BRANCH   2  10
HETATM   10  C   UNK N   1      32.774 -17.965 -76.609  0.00  0.00     0.060 C 
HETATM   11  C   UNK N   1      33.820 -19.064 -76.721  0.00  0.00     0.012 C 
ENDBRANCH   2  10
TORSDOF 3
ENDMDL
MODEL 7
REMARK VINA RESULT:      -5.3      4.366      6.333
REMARK  3 active torsions:
REMARK  status: ('A' for Active; 'I' for Inactive)
REMARK    1  A    between atoms: C_3  and  C_5 
REMARK    2  A    between atoms: C_4  and  C_6 
REMARK    3  A    between atoms: C_6  and  C_10 
ROOT
HETATM    1  O   UNK N   1      37.786 -23.582 -72.983  0.00  0.00    -0.319 OA
HETATM    2  C   UNK N   1      37.122 -22.460 -72.790  0.00  0.00     0.053 A 
HETATM    3  C   UNK N   1      37.533 -24.013 -74.201  0.00  0.00     0.060 A 
HETATM    4  C   UNK N   1      36.420 -22.133 -73.931  0.00  0.00     0.035 A 
HETATM    5  C   UNK N   1      36.683 -23.132 -74.840  0.00  0.00     0.035 A 
ENDROOT
BRANCH   3   6
HETATM    6  C   UNK N   1      38.048 -25.303 -74.773  0.00  0.00     0.142 C 
BRANCH   6   7
HETATM    7  C   UNK N   1      39.383 -25.178 -75.458  0.00  0.00     0.129 C 
HETATM    8  O   UNK N   1      39.474 -24.682 -76.572  0.00  0.00    -0.298 OA
HETATM    9  C   UNK N   1      40.610 -25.694 -74.767  0.00  0.00     0.091 C 
ENDBRANCH   6   7
ENDBRANCH   3   6
BRANCH   2  10
HETATM   10  C   UNK N   1      37.101 -21.696 -71.500  0.00  0.00     0.060 C 
HETATM   11  C   UNK N   1      38.222 -20.669 -71.434  0.00  0.00     0.012 C 
ENDBRANCH   2  10
TORSDOF 3
ENDMDL
MODEL 8
REMARK VINA RESULT:      -5.2      4.382      5.693
REMARK  3 active torsions:
REMARK  status: ('A' for Active; 'I' for Inactive)
REMARK    1  A    between atoms: C_3  and  C_5 
REMARK    2  A    between atoms: C_4  and  C_6 
REMARK    3  A    between atoms: C_6  and  C_10 
ROOT
HETATM    1  O   UNK N   1      30.799 -18.022 -76.356  0.00  0.00    -0.319 OA
HETATM    2  C   UNK N   1      30.600 -17.982 -75.054  0.00  0.00     0.053 A 
HETATM    3  C   UNK N   1      32.033 -18.421 -76.579  0.00  0.00     0.060 A 
HETATM    4  C   UNK N   1      31.743 -18.388 -74.396  0.00  0.00     0.035 A 
HETATM    5  C   UNK N   1      32.666 -18.671 -75.378  0.00  0.00     0.035 A 
ENDROOT
BRANCH   3   6
HETATM    6  C   UNK N   1      32.662 -18.526 -77.939  0.00  0.00     0.142 C 
BRANCH   6   7
HETATM    7  C   UNK N   1      32.880 -19.941 -78.406  0.00  0.00     0.129 C 
HETATM    8  O   UNK N   1      34.008 -20.394 -78.529  0.00  0.00    -0.298 OA
HETATM    9  C   UNK N   1      31.692 -20.791 -78.742  0.00  0.00     0.091 C 
ENDBRANCH   6   7
ENDBRANCH   3   6
BRANCH   2  10
HETATM   10  C   UNK N   1      29.336 -17.512 -74.399  0.00  0.00     0.060 C 
HETATM   11  C   UNK N   1      28.855 -18.487 -73.334  0.00  0.00     0.012 C 
ENDBRANCH   2  10
TORSDOF 3
ENDMDL
MODEL 9
REMARK VINA RESULT:      -5.2      4.605      6.564
REMARK  3 active torsions:
REMARK  status: ('A' for Active; 'I' for Inactive)
REMARK    1  A    between atoms: C_3  and  C_5 
REMARK    2  A    between atoms: C_4  and  C_6 
REMARK    3  A    between atoms: C_6  and  C_10 
ROOT
HETATM    1  O   UNK N   1      30.318 -17.968 -75.966  0.00  0.00    -0.319 OA
HETATM    2  C   UNK N   1      30.206 -18.138 -74.664  0.00  0.00     0.053 A 
HETATM    3  C   UNK N   1      31.593 -18.029 -76.288  0.00  0.00     0.060 A 
HETATM    4  C   UNK N   1      31.455 -18.336 -74.112  0.00  0.00     0.035 A 
HETATM    5  C   UNK N   1      32.349 -18.266 -75.157  0.00  0.00     0.035 A 
ENDROOT
BRANCH   3   6
HETATM    6  C   UNK N   1      32.134 -17.810 -77.672  0.00  0.00     0.142 C 
BRANCH   6   7
HETATM    7  C   UNK N   1      31.136 -17.224 -78.635  0.00  0.00     0.129 C 
HETATM    8  O   UNK N   1      30.951 -16.017 -78.691  0.00  0.00    -0.298 OA
HETATM    9  C   UNK N   1      30.346 -18.143 -79.518  0.00  0.00     0.091 C 
ENDBRANCH   6   7
ENDBRANCH   3   6
BRANCH   2  10
HETATM   10  C   UNK N   1      28.915 -18.071 -73.905  0.00  0.00     0.060 C 
HETATM   11  C   UNK N   1      29.005 -18.798 -72.572  0.00  0.00     0.012 C 
ENDBRANCH   2  10
TORSDOF 3
ENDMDL
