MODEL 1
REMARK VINA RESULT:      -4.4      0.000      0.000
REMARK  3 active torsions:
REMARK  status: ('A' for Active; 'I' for Inactive)
REMARK    1  A    between atoms: O_1  and  C_2 
REMARK    2  A    between atoms: C_2  and  C_3 
REMARK    3  A    between atoms: C_3  and  C_6 
ROOT
HETATM    1  C   UNK N   1      29.941 -17.480 -74.815  0.00  0.00     0.053 C 
HETATM    2  C   UNK N   1      29.830 -18.045 -76.238  0.00  0.00     0.045 C 
HETATM    3  C   UNK N   1      28.788 -18.065 -73.967  0.00  0.00     0.045 C 
ENDROOT
BRANCH   1   4
HETATM    4  O   UNK N   1      29.822 -16.080 -74.907  0.00  0.00    -0.390 OA
HETATM    5  H   UNK N   1      30.708 -15.699 -75.147  0.00  0.00     0.210 HD
ENDBRANCH   1   4
BRANCH   1   6
HETATM    6  C   UNK N   1      31.328 -17.866 -74.234  0.00  0.00     0.063 C 
BRANCH   6   7
HETATM    7  C   UNK N   1      31.244 -18.718 -72.989  0.00  0.00    -0.034 C 
HETATM    8  C   UNK N   1      32.278 -18.827 -72.148  0.00  0.00     0.007 C 
ENDBRANCH   6   7
ENDBRANCH   1   6
TORSDOF 3
ENDMDL
MODEL 2
REMARK VINA RESULT:      -4.4      1.197      3.323
REMARK  3 active torsions:
REMARK  status: ('A' for Active; 'I' for Inactive)
REMARK    1  A    between atoms: O_1  and  C_2 
REMARK    2  A    between atoms: C_2  and  C_3 
REMARK    3  A    between atoms: C_3  and  C_6 
ROOT
HETATM    1  C   UNK N   1      29.942 -17.474 -74.866  0.00  0.00     0.053 C 
HETATM    2  C   UNK N   1      28.692 -18.044 -74.180  0.00  0.00     0.045 C 
HETATM    3  C   UNK N   1      31.184 -17.912 -74.058  0.00  0.00     0.045 C 
ENDROOT
BRANCH   1   4
HETATM    4  O   UNK N   1      29.822 -16.070 -74.861  0.00  0.00    -0.390 OA
HETATM    5  H   UNK N   1      30.351 -15.708 -74.101  0.00  0.00     0.210 HD
ENDBRANCH   1   4
BRANCH   1   6
HETATM    6  C   UNK N   1      29.993 -18.004 -76.324  0.00  0.00     0.063 C 
BRANCH   6   7
HETATM    7  C   UNK N   1      31.213 -17.547 -77.089  0.00  0.00    -0.034 C 
HETATM    8  C   UNK N   1      31.112 -16.716 -78.132  0.00  0.00     0.007 C 
ENDBRANCH   6   7
ENDBRANCH   1   6
TORSDOF 3
ENDMDL
MODEL 3
REMARK VINA RESULT:      -4.2      5.750      7.510
REMARK  3 active torsions:
REMARK  status: ('A' for Active; 'I' for Inactive)
REMARK    1  A    between atoms: O_1  and  C_2 
REMARK    2  A    between atoms: C_2  and  C_3 
REMARK    3  A    between atoms: C_3  and  C_6 
ROOT
HETATM    1  C   UNK N   1      36.596 -21.403 -71.492  0.00  0.00     0.053 C 
HETATM    2  C   UNK N   1      37.120 -22.552 -72.366  0.00  0.00     0.045 C 
HETATM    3  C   UNK N   1      37.785 -20.481 -71.136  0.00  0.00     0.045 C 
ENDROOT
BRANCH   1   4
HETATM    4  O   UNK N   1      36.052 -21.975 -70.325  0.00  0.00    -0.390 OA
HETATM    5  H   UNK N   1      36.770 -22.052 -69.642  0.00  0.00     0.210 HD
ENDBRANCH   1   4
BRANCH   1   6
HETATM    6  C   UNK N   1      35.498 -20.640 -72.281  0.00  0.00     0.063 C 
BRANCH   6   7
HETATM    7  C   UNK N   1      34.141 -20.684 -71.618  0.00  0.00    -0.034 C 
HETATM    8  C   UNK N   1      33.565 -19.578 -71.135  0.00  0.00     0.007 C 
ENDBRANCH   6   7
ENDBRANCH   1   6
TORSDOF 3
ENDMDL
MODEL 4
REMARK VINA RESULT:      -4.2      5.536      7.588
REMARK  3 active torsions:
REMARK  status: ('A' for Active; 'I' for Inactive)
REMARK    1  A    between atoms: O_1  and  C_2 
REMARK    2  A    between atoms: C_2  and  C_3 
REMARK    3  A    between atoms: C_3  and  C_6 
ROOT
HETATM    1  C   UNK N   1      37.182 -20.915 -72.093  0.00  0.00     0.053 C 
HETATM    2  C   UNK N   1      38.287 -20.531 -71.098  0.00  0.00     0.045 C 
HETATM    3  C   UNK N   1      37.246 -22.441 -72.327  0.00  0.00     0.045 C 
ENDROOT
BRANCH   1   4
HETATM    4  O   UNK N   1      37.436 -20.222 -73.292  0.00  0.00    -0.390 OA
HETATM    5  H   UNK N   1      37.399 -20.867 -74.047  0.00  0.00     0.210 HD
ENDBRANCH   1   4
BRANCH   1   6
HETATM    6  C   UNK N   1      35.812 -20.486 -71.502  0.00  0.00     0.063 C 
BRANCH   6   7
HETATM    7  C   UNK N   1      34.631 -20.940 -72.328  0.00  0.00    -0.034 C 
HETATM    8  C   UNK N   1      33.374 -20.723 -71.927  0.00  0.00     0.007 C 
ENDBRANCH   6   7
ENDBRANCH   1   6
TORSDOF 3
ENDMDL
MODEL 5
REMARK VINA RESULT:      -4.1      6.866      8.361
REMARK  3 active torsions:
REMARK  status: ('A' for Active; 'I' for Inactive)
REMARK    1  A    between atoms: O_1  and  C_2 
REMARK    2  A    between atoms: C_2  and  C_3 
REMARK    3  A    between atoms: C_3  and  C_6 
ROOT
HETATM    1  C   UNK N   1      37.235 -20.930 -72.134  0.00  0.00     0.053 C 
HETATM    2  C   UNK N   1      35.793 -20.584 -71.739  0.00  0.00     0.045 C 
HETATM    3  C   UNK N   1      38.176 -20.478 -70.994  0.00  0.00     0.045 C 
ENDROOT
BRANCH   1   4
HETATM    4  O   UNK N   1      37.528 -20.228 -73.320  0.00  0.00    -0.390 OA
HETATM    5  H   UNK N   1      37.495 -20.863 -74.084  0.00  0.00     0.210 HD
ENDBRANCH   1   4
BRANCH   1   6
HETATM    6  C   UNK N   1      37.329 -22.461 -72.378  0.00  0.00     0.063 C 
BRANCH   6   7
HETATM    7  C   UNK N   1      37.120 -22.855 -73.822  0.00  0.00    -0.034 C 
HETATM    8  C   UNK N   1      37.640 -23.982 -74.320  0.00  0.00     0.007 C 
ENDBRANCH   6   7
ENDBRANCH   1   6
TORSDOF 3
ENDMDL
MODEL 6
REMARK VINA RESULT:      -4.0      5.652      6.823
REMARK  3 active torsions:
REMARK  status: ('A' for Active; 'I' for Inactive)
REMARK    1  A    between atoms: O_1  and  C_2 
REMARK    2  A    between atoms: C_2  and  C_3 
REMARK    3  A    between atoms: C_3  and  C_6 
ROOT
HETATM    1  C   UNK N   1      35.275 -21.319 -73.527  0.00  0.00     0.053 C 
HETATM    2  C   UNK N   1      34.397 -21.141 -72.280  0.00  0.00     0.045 C 
HETATM    3  C   UNK N   1      34.609 -20.568 -74.703  0.00  0.00     0.045 C 
ENDROOT
BRANCH   1   4
HETATM    4  O   UNK N   1      35.344 -22.699 -73.801  0.00  0.00    -0.390 OA
HETATM    5  H   UNK N   1      36.188 -23.058 -73.418  0.00  0.00     0.210 HD
ENDBRANCH   1   4
BRANCH   1   6
HETATM    6  C   UNK N   1      36.690 -20.759 -73.221  0.00  0.00     0.063 C 
BRANCH   6   7
HETATM    7  C   UNK N   1      37.247 -21.220 -71.894  0.00  0.00    -0.034 C 
HETATM    8  C   UNK N   1      38.060 -20.443 -71.171  0.00  0.00     0.007 C 
ENDBRANCH   6   7
ENDBRANCH   1   6
TORSDOF 3
ENDMDL
MODEL 7
REMARK VINA RESULT:      -4.0      2.066      2.964
REMARK  3 active torsions:
REMARK  status: ('A' for Active; 'I' for Inactive)
REMARK    1  A    between atoms: O_1  and  C_2 
REMARK    2  A    between atoms: C_2  and  C_3 
REMARK    3  A    between atoms: C_3  and  C_6 
ROOT
HETATM    1  C   UNK N   1      30.747 -17.758 -76.712  0.00  0.00     0.053 C 
HETATM    2  C   UNK N   1      30.975 -16.711 -77.812  0.00  0.00     0.045 C 
HETATM    3  C   UNK N   1      32.099 -18.438 -76.400  0.00  0.00     0.045 C 
ENDROOT
BRANCH   1   4
HETATM    4  O   UNK N   1      29.826 -18.700 -77.211  0.00  0.00    -0.390 OA
HETATM    5  H   UNK N   1      29.486 -18.379 -78.088  0.00  0.00     0.210 HD
ENDBRANCH   1   4
BRANCH   1   6
HETATM    6  C   UNK N   1      30.165 -17.045 -75.462  0.00  0.00     0.063 C 
BRANCH   6   7
HETATM    7  C   UNK N   1      30.004 -17.957 -74.269  0.00  0.00    -0.034 C 
HETATM    8  C   UNK N   1      28.796 -18.277 -73.792  0.00  0.00     0.007 C 
ENDBRANCH   6   7
ENDBRANCH   1   6
TORSDOF 3
ENDMDL
MODEL 8
REMARK VINA RESULT:      -3.8      1.702      2.384
REMARK  3 active torsions:
REMARK  status: ('A' for Active; 'I' for Inactive)
REMARK    1  A    between atoms: O_1  and  C_2 
REMARK    2  A    between atoms: C_2  and  C_3 
REMARK    3  A    between atoms: C_3  and  C_6 
ROOT
HETATM    1  C   UNK N   1      30.056 -17.854 -74.822  0.00  0.00     0.053 C 
HETATM    2  C   UNK N   1      29.006 -18.364 -73.825  0.00  0.00     0.045 C 
HETATM    3  C   UNK N   1      29.980 -16.310 -74.862  0.00  0.00     0.045 C 
ENDROOT
BRANCH   1   4
HETATM    4  O   UNK N   1      29.737 -18.394 -76.083  0.00  0.00    -0.390 OA
HETATM    5  H   UNK N   1      28.922 -17.942 -76.427  0.00  0.00     0.210 HD
ENDBRANCH   1   4
BRANCH   1   6
HETATM    6  C   UNK N   1      31.456 -18.345 -74.364  0.00  0.00     0.063 C 
BRANCH   6   7
HETATM    7  C   UNK N   1      32.437 -18.512 -75.500  0.00  0.00    -0.034 C 
HETATM    8  C   UNK N   1      33.309 -19.526 -75.526  0.00  0.00     0.007 C 
ENDBRANCH   6   7
ENDBRANCH   1   6
TORSDOF 3
ENDMDL
MODEL 9
REMARK VINA RESULT:      -3.8      5.463      6.839
REMARK  3 active torsions:
REMARK  status: ('A' for Active; 'I' for Inactive)
REMARK    1  A    between atoms: O_1  and  C_2 
REMARK    2  A    between atoms: C_2  and  C_3 
REMARK    3  A    between atoms: C_3  and  C_6 
ROOT
HETATM    1  C   UNK N   1      34.604 -20.860 -71.393  0.00  0.00     0.053 C 
HETATM    2  C   UNK N   1      34.855 -21.719 -70.145  0.00  0.00     0.045 C 
HETATM    3  C   UNK N   1      33.900 -19.556 -70.954  0.00  0.00     0.045 C 
ENDROOT
BRANCH   1   4
HETATM    4  O   UNK N   1      33.771 -21.602 -72.254  0.00  0.00    -0.390 OA
HETATM    5  H   UNK N   1      33.868 -22.567 -72.039  0.00  0.00     0.210 HD
ENDBRANCH   1   4
BRANCH   1   6
HETATM    6  C   UNK N   1      35.966 -20.570 -72.079  0.00  0.00     0.063 C 
BRANCH   6   7
HETATM    7  C   UNK N   1      37.148 -21.148 -71.338  0.00  0.00    -0.034 C 
HETATM    8  C   UNK N   1      38.234 -20.412 -71.072  0.00  0.00     0.007 C 
ENDBRANCH   6   7
ENDBRANCH   1   6
TORSDOF 3
ENDMDL
