MODEL 1
REMARK VINA RESULT:      -6.6      0.000      0.000
REMARK  0 active torsions:
REMARK  status: ('A' for Active; 'I' for Inactive)
ROOT
HETATM    1  O   UNK N   1      31.618 -19.143 -80.313  0.00  0.00    -0.370 OA
HETATM    2  C   UNK N   1      30.640 -18.049 -76.372  0.00  0.00     0.001 C 
HETATM    3  C   UNK N   1      30.361 -17.549 -74.931  0.00  0.00    -0.043 C 
HETATM    4  C   UNK N   1      31.769 -18.924 -75.745  0.00  0.00     0.019 C 
HETATM    5  C   UNK N   1      31.813 -17.935 -74.577  0.00  0.00     0.018 C 
HETATM    6  C   UNK N   1      31.121 -19.441 -79.018  0.00  0.00     0.084 A 
HETATM    7  C   UNK N   1      29.497 -18.745 -77.158  0.00  0.00     0.009 C 
HETATM    8  C   UNK N   1      32.159 -18.400 -79.238  0.00  0.00     0.157 A 
HETATM    9  C   UNK N   1      29.748 -18.848 -78.679  0.00  0.00     0.041 C 
HETATM   10  C   UNK N   1      33.067 -19.245 -76.472  0.00  0.00    -0.085 C 
HETATM   11  C   UNK N   1      33.612 -18.661 -78.838  0.00  0.00     0.039 C 
HETATM   12  C   UNK N   1      30.034 -16.056 -74.786  0.00  0.00     0.015 C 
HETATM   13  C   UNK N   1      29.324 -18.403 -74.153  0.00  0.00     0.015 C 
HETATM   14  C   UNK N   1      33.772 -18.246 -77.361  0.00  0.00     0.036 C 
HETATM   15  C   UNK N   1      31.372 -20.918 -78.695  0.00  0.00     0.049 C 
HETATM   16  C   UNK N   1      33.603 -20.473 -76.340  0.00  0.00     0.014 C 
ENDROOT
TORSDOF 0
ENDMDL
MODEL 2
REMARK VINA RESULT:      -6.6      1.269      3.114
REMARK  0 active torsions:
REMARK  status: ('A' for Active; 'I' for Inactive)
ROOT
HETATM    1  O   UNK N   1      32.645 -20.839 -78.714  0.00  0.00    -0.370 OA
HETATM    2  C   UNK N   1      31.423 -18.711 -75.299  0.00  0.00     0.001 C 
HETATM    3  C   UNK N   1      30.856 -17.970 -74.061  0.00  0.00    -0.043 C 
HETATM    4  C   UNK N   1      31.074 -17.423 -76.107  0.00  0.00     0.019 C 
HETATM    5  C   UNK N   1      30.034 -17.095 -75.032  0.00  0.00     0.018 C 
HETATM    6  C   UNK N   1      32.809 -19.801 -77.763  0.00  0.00     0.084 A 
HETATM    7  C   UNK N   1      32.894 -19.204 -75.269  0.00  0.00     0.009 C 
HETATM    8  C   UNK N   1      31.464 -20.309 -78.144  0.00  0.00     0.157 A 
HETATM    9  C   UNK N   1      33.234 -20.245 -76.358  0.00  0.00     0.041 C 
HETATM   10  C   UNK N   1      30.625 -17.455 -77.562  0.00  0.00    -0.085 C 
HETATM   11  C   UNK N   1      30.546 -19.470 -79.034  0.00  0.00     0.039 C 
HETATM   12  C   UNK N   1      30.020 -18.819 -73.092  0.00  0.00     0.015 C 
HETATM   13  C   UNK N   1      31.910 -17.143 -73.278  0.00  0.00     0.015 C 
HETATM   14  C   UNK N   1      29.728 -18.539 -78.115  0.00  0.00     0.036 C 
HETATM   15  C   UNK N   1      33.547 -18.621 -78.405  0.00  0.00     0.049 C 
HETATM   16  C   UNK N   1      31.059 -16.494 -78.399  0.00  0.00     0.014 C 
ENDROOT
TORSDOF 0
ENDMDL
MODEL 3
REMARK VINA RESULT:      -6.3      9.155     11.511
REMARK  0 active torsions:
REMARK  status: ('A' for Active; 'I' for Inactive)
ROOT
HETATM    1  O   UNK N   1      42.009 -20.926 -80.882  0.00  0.00    -0.370 OA
HETATM    2  C   UNK N   1      39.456 -23.362 -83.170  0.00  0.00     0.001 C 
HETATM    3  C   UNK N   1      38.422 -24.180 -83.985  0.00  0.00    -0.043 C 
HETATM    4  C   UNK N   1      39.056 -24.254 -81.953  0.00  0.00     0.019 C 
HETATM    5  C   UNK N   1      37.718 -24.512 -82.651  0.00  0.00     0.018 C 
HETATM    6  C   UNK N   1      41.668 -22.165 -81.481  0.00  0.00     0.084 A 
HETATM    7  C   UNK N   1      40.936 -23.348 -83.637  0.00  0.00     0.009 C 
HETATM    8  C   UNK N   1      40.629 -21.207 -81.019  0.00  0.00     0.157 A 
HETATM    9  C   UNK N   1      41.786 -22.221 -83.009  0.00  0.00     0.041 C 
HETATM   10  C   UNK N   1      39.039 -23.739 -80.521  0.00  0.00    -0.085 C 
HETATM   11  C   UNK N   1      39.821 -21.495 -79.753  0.00  0.00     0.039 C 
HETATM   12  C   UNK N   1      37.570 -23.385 -84.985  0.00  0.00     0.015 C 
HETATM   13  C   UNK N   1      39.008 -25.446 -84.667  0.00  0.00     0.015 C 
HETATM   14  C   UNK N   1      38.596 -22.338 -80.163  0.00  0.00     0.036 C 
HETATM   15  C   UNK N   1      42.265 -23.317 -80.666  0.00  0.00     0.049 C 
HETATM   16  C   UNK N   1      39.454 -24.551 -79.531  0.00  0.00     0.014 C 
ENDROOT
TORSDOF 0
ENDMDL
MODEL 4
REMARK VINA RESULT:      -6.2      7.194      9.563
REMARK  0 active torsions:
REMARK  status: ('A' for Active; 'I' for Inactive)
ROOT
HETATM    1  O   UNK N   1      35.368 -23.675 -83.944  0.00  0.00    -0.370 OA
HETATM    2  C   UNK N   1      38.365 -23.853 -80.999  0.00  0.00     0.001 C 
HETATM    3  C   UNK N   1      39.378 -23.908 -79.827  0.00  0.00    -0.043 C 
HETATM    4  C   UNK N   1      38.561 -22.306 -80.966  0.00  0.00     0.019 C 
HETATM    5  C   UNK N   1      39.001 -22.446 -79.506  0.00  0.00     0.018 C 
HETATM    6  C   UNK N   1      36.712 -23.524 -83.515  0.00  0.00     0.084 A 
HETATM    7  C   UNK N   1      38.688 -24.624 -82.306  0.00  0.00     0.009 C 
HETATM    8  C   UNK N   1      35.566 -23.319 -82.590  0.00  0.00     0.157 A 
HETATM    9  C   UNK N   1      37.473 -24.826 -83.238  0.00  0.00     0.041 C 
HETATM   10  C   UNK N   1      37.446 -21.323 -81.296  0.00  0.00    -0.085 C 
HETATM   11  C   UNK N   1      35.173 -21.908 -82.148  0.00  0.00     0.039 C 
HETATM   12  C   UNK N   1      39.065 -24.916 -78.712  0.00  0.00     0.015 C 
HETATM   13  C   UNK N   1      40.859 -24.045 -80.273  0.00  0.00     0.015 C 
HETATM   14  C   UNK N   1      36.006 -21.560 -80.898  0.00  0.00     0.036 C 
HETATM   15  C   UNK N   1      37.404 -22.444 -84.354  0.00  0.00     0.049 C 
HETATM   16  C   UNK N   1      37.743 -20.207 -81.988  0.00  0.00     0.014 C 
ENDROOT
TORSDOF 0
ENDMDL
MODEL 5
REMARK VINA RESULT:      -6.2      1.244      3.318
REMARK  0 active torsions:
REMARK  status: ('A' for Active; 'I' for Inactive)
ROOT
HETATM    1  O   UNK N   1      32.733 -20.071 -79.774  0.00  0.00    -0.370 OA
HETATM    2  C   UNK N   1      30.722 -18.373 -76.494  0.00  0.00     0.001 C 
HETATM    3  C   UNK N   1      29.942 -17.863 -75.254  0.00  0.00    -0.043 C 
HETATM    4  C   UNK N   1      29.402 -18.148 -77.295  0.00  0.00     0.019 C 
HETATM    5  C   UNK N   1      28.640 -18.281 -75.973  0.00  0.00     0.018 C 
HETATM    6  C   UNK N   1      32.128 -18.974 -79.108  0.00  0.00     0.084 A 
HETATM    7  C   UNK N   1      32.005 -17.620 -76.933  0.00  0.00     0.009 C 
HETATM    8  C   UNK N   1      31.667 -20.371 -78.894  0.00  0.00     0.157 A 
HETATM    9  C   UNK N   1      32.902 -18.414 -77.909  0.00  0.00     0.041 C 
HETATM   10  C   UNK N   1      28.983 -19.029 -78.464  0.00  0.00    -0.085 C 
HETATM   11  C   UNK N   1      30.345 -20.849 -79.497  0.00  0.00     0.039 C 
HETATM   12  C   UNK N   1      30.217 -18.600 -73.935  0.00  0.00     0.015 C 
HETATM   13  C   UNK N   1      30.024 -16.328 -75.039  0.00  0.00     0.015 C 
HETATM   14  C   UNK N   1      29.225 -20.521 -78.488  0.00  0.00     0.036 C 
HETATM   15  C   UNK N   1      31.574 -17.984 -80.139  0.00  0.00     0.049 C 
HETATM   16  C   UNK N   1      28.392 -18.459 -79.531  0.00  0.00     0.014 C 
ENDROOT
TORSDOF 0
ENDMDL
MODEL 6
REMARK VINA RESULT:      -6.2      7.942     10.785
REMARK  0 active torsions:
REMARK  status: ('A' for Active; 'I' for Inactive)
ROOT
HETATM    1  O   UNK N   1      36.572 -22.220 -79.882  0.00  0.00    -0.370 OA
HETATM    2  C   UNK N   1      38.207 -23.942 -83.352  0.00  0.00     0.001 C 
HETATM    3  C   UNK N   1      38.888 -24.643 -84.557  0.00  0.00    -0.043 C 
HETATM    4  C   UNK N   1      39.296 -22.836 -83.507  0.00  0.00     0.019 C 
HETATM    5  C   UNK N   1      40.180 -23.877 -84.199  0.00  0.00     0.018 C 
HETATM    6  C   UNK N   1      36.839 -22.215 -81.275  0.00  0.00     0.084 A 
HETATM    7  C   UNK N   1      36.711 -23.546 -83.464  0.00  0.00     0.009 C 
HETATM    8  C   UNK N   1      37.755 -22.869 -80.304  0.00  0.00     0.157 A 
HETATM    9  C   UNK N   1      36.040 -23.223 -82.110  0.00  0.00     0.041 C 
HETATM   10  C   UNK N   1      39.870 -22.069 -82.323  0.00  0.00    -0.085 C 
HETATM   11  C   UNK N   1      39.097 -22.225 -79.954  0.00  0.00     0.039 C 
HETATM   12  C   UNK N   1      38.999 -26.172 -84.473  0.00  0.00     0.015 C 
HETATM   13  C   UNK N   1      38.322 -24.221 -85.939  0.00  0.00     0.015 C 
HETATM   14  C   UNK N   1      40.135 -22.718 -80.983  0.00  0.00     0.036 C 
HETATM   15  C   UNK N   1      36.934 -20.770 -81.779  0.00  0.00     0.049 C 
HETATM   16  C   UNK N   1      40.135 -20.757 -82.462  0.00  0.00     0.014 C 
ENDROOT
TORSDOF 0
ENDMDL
MODEL 7
REMARK VINA RESULT:      -6.0      8.547     10.837
REMARK  0 active torsions:
REMARK  status: ('A' for Active; 'I' for Inactive)
ROOT
HETATM    1  O   UNK N   1      37.046 -22.634 -82.331  0.00  0.00    -0.370 OA
HETATM    2  C   UNK N   1      40.402 -20.102 -82.442  0.00  0.00     0.001 C 
HETATM    3  C   UNK N   1      41.666 -19.218 -82.596  0.00  0.00    -0.043 C 
HETATM    4  C   UNK N   1      41.337 -21.151 -81.765  0.00  0.00     0.019 C 
HETATM    5  C   UNK N   1      42.509 -20.509 -82.513  0.00  0.00     0.018 C 
HETATM    6  C   UNK N   1      38.031 -21.834 -81.698  0.00  0.00     0.084 A 
HETATM    7  C   UNK N   1      39.192 -19.547 -81.644  0.00  0.00     0.009 C 
HETATM    8  C   UNK N   1      38.299 -22.539 -82.979  0.00  0.00     0.157 A 
HETATM    9  C   UNK N   1      37.874 -20.319 -81.876  0.00  0.00     0.041 C 
HETATM   10  C   UNK N   1      41.129 -22.653 -81.898  0.00  0.00    -0.085 C 
HETATM   11  C   UNK N   1      39.195 -23.779 -83.006  0.00  0.00     0.039 C 
HETATM   12  C   UNK N   1      41.793 -18.447 -83.918  0.00  0.00     0.015 C 
HETATM   13  C   UNK N   1      41.928 -18.270 -81.395  0.00  0.00     0.015 C 
HETATM   14  C   UNK N   1      40.651 -23.300 -83.179  0.00  0.00     0.036 C 
HETATM   15  C   UNK N   1      38.310 -22.373 -80.291  0.00  0.00     0.049 C 
HETATM   16  C   UNK N   1      41.357 -23.441 -80.831  0.00  0.00     0.014 C 
ENDROOT
TORSDOF 0
ENDMDL
MODEL 8
REMARK VINA RESULT:      -5.9      7.155      9.668
REMARK  0 active torsions:
REMARK  status: ('A' for Active; 'I' for Inactive)
ROOT
HETATM    1  O   UNK N   1      41.442 -21.306 -80.380  0.00  0.00    -0.370 OA
HETATM    2  C   UNK N   1      37.392 -21.367 -81.512  0.00  0.00     0.001 C 
HETATM    3  C   UNK N   1      35.880 -21.474 -81.838  0.00  0.00    -0.043 C 
HETATM    4  C   UNK N   1      37.594 -22.530 -82.532  0.00  0.00     0.019 C 
HETATM    5  C   UNK N   1      36.137 -22.930 -82.282  0.00  0.00     0.018 C 
HETATM    6  C   UNK N   1      40.404 -21.099 -81.323  0.00  0.00     0.084 A 
HETATM    7  C   UNK N   1      38.118 -20.017 -81.758  0.00  0.00     0.009 C 
HETATM    8  C   UNK N   1      40.308 -22.145 -80.270  0.00  0.00     0.157 A 
HETATM    9  C   UNK N   1      39.488 -19.899 -81.053  0.00  0.00     0.041 C 
HETATM   10  C   UNK N   1      38.674 -23.592 -82.373  0.00  0.00    -0.085 C 
HETATM   11  C   UNK N   1      40.464 -23.622 -80.633  0.00  0.00     0.039 C 
HETATM   12  C   UNK N   1      34.922 -21.320 -80.648  0.00  0.00     0.015 C 
HETATM   13  C   UNK N   1      35.420 -20.575 -83.017  0.00  0.00     0.015 C 
HETATM   14  C   UNK N   1      39.071 -24.156 -81.028  0.00  0.00     0.036 C 
HETATM   15  C   UNK N   1      40.948 -21.290 -82.743  0.00  0.00     0.049 C 
HETATM   16  C   UNK N   1      39.319 -24.035 -83.469  0.00  0.00     0.014 C 
ENDROOT
TORSDOF 0
ENDMDL
MODEL 9
REMARK VINA RESULT:      -5.9      7.416      9.446
REMARK  0 active torsions:
REMARK  status: ('A' for Active; 'I' for Inactive)
ROOT
HETATM    1  O   UNK N   1      35.998 -23.615 -82.579  0.00  0.00    -0.370 OA
HETATM    2  C   UNK N   1      39.007 -20.751 -81.927  0.00  0.00     0.001 C 
HETATM    3  C   UNK N   1      40.196 -19.772 -81.749  0.00  0.00    -0.043 C 
HETATM    4  C   UNK N   1      39.456 -21.387 -80.575  0.00  0.00     0.019 C 
HETATM    5  C   UNK N   1      40.857 -20.830 -80.839  0.00  0.00     0.018 C 
HETATM    6  C   UNK N   1      36.548 -22.519 -81.868  0.00  0.00     0.084 A 
HETATM    7  C   UNK N   1      37.572 -20.173 -82.047  0.00  0.00     0.009 C 
HETATM    8  C   UNK N   1      37.409 -23.530 -82.537  0.00  0.00     0.157 A 
HETATM    9  C   UNK N   1      36.533 -21.173 -82.602  0.00  0.00     0.041 C 
HETATM   10  C   UNK N   1      39.312 -22.872 -80.271  0.00  0.00    -0.085 C 
HETATM   11  C   UNK N   1      38.172 -24.565 -81.709  0.00  0.00     0.039 C 
HETATM   12  C   UNK N   1      40.984 -19.429 -83.021  0.00  0.00     0.015 C 
HETATM   13  C   UNK N   1      39.839 -18.475 -80.973  0.00  0.00     0.015 C 
HETATM   14  C   UNK N   1      39.528 -23.943 -81.317  0.00  0.00     0.036 C 
HETATM   15  C   UNK N   1      36.073 -22.556 -80.411  0.00  0.00     0.049 C 
HETATM   16  C   UNK N   1      38.958 -23.252 -79.029  0.00  0.00     0.014 C 
ENDROOT
TORSDOF 0
ENDMDL
