MODEL 1
REMARK VINA RESULT:      -5.7      0.000      0.000
REMARK  1 active torsions:
REMARK  status: ('A' for Active; 'I' for Inactive)
REMARK    1  A    between atoms: C_1  and  C_5 
ROOT
HETATM    1  C   UNK N   1      35.132 -21.002 -72.342  0.00  0.00    -0.029 A 
HETATM    2  C   UNK N   1      34.200 -20.339 -73.358  0.00  0.00     0.023 A 
HETATM    3  C   UNK N   1      34.341 -21.862 -73.320  0.00  0.00     0.020 A 
HETATM    4  C   UNK N   1      34.503 -20.946 -70.942  0.00  0.00     0.015 C 
HETATM    5  C   UNK N   1      33.227 -19.658 -72.442  0.00  0.00    -0.084 C 
HETATM    6  C   UNK N   1      33.544 -19.775 -70.991  0.00  0.00     0.034 C 
HETATM    7  C   UNK N   1      32.204 -18.936 -72.895  0.00  0.00     0.014 C 
ENDROOT
BRANCH   1   8
HETATM    8  C   UNK N   1      36.661 -21.031 -72.550  0.00  0.00    -0.014 C 
HETATM    9  C   UNK N   1      37.357 -20.212 -71.459  0.00  0.00     0.010 C 
HETATM   10  C   UNK N   1      37.175 -22.478 -72.549  0.00  0.00     0.010 C 
ENDBRANCH   1   8
TORSDOF 1
ENDMDL
MODEL 2
REMARK VINA RESULT:      -5.7      2.070      4.086
REMARK  1 active torsions:
REMARK  status: ('A' for Active; 'I' for Inactive)
REMARK    1  A    between atoms: C_1  and  C_5 
ROOT
HETATM    1  C   UNK N   1      32.369 -19.064 -73.256  0.00  0.00    -0.029 A 
HETATM    2  C   UNK N   1      30.983 -18.855 -72.644  0.00  0.00     0.023 A 
HETATM    3  C   UNK N   1      32.185 -18.068 -72.118  0.00  0.00     0.020 A 
HETATM    4  C   UNK N   1      32.436 -18.395 -74.638  0.00  0.00     0.015 C 
HETATM    5  C   UNK N   1      30.225 -18.349 -73.836  0.00  0.00    -0.084 C 
HETATM    6  C   UNK N   1      30.999 -18.325 -75.108  0.00  0.00     0.034 C 
HETATM    7  C   UNK N   1      28.936 -18.021 -73.776  0.00  0.00     0.014 C 
ENDROOT
BRANCH   1   8
HETATM    8  C   UNK N   1      33.230 -20.295 -72.903  0.00  0.00    -0.014 C 
HETATM    9  C   UNK N   1      34.166 -20.635 -74.066  0.00  0.00     0.010 C 
HETATM   10  C   UNK N   1      34.034 -20.037 -71.621  0.00  0.00     0.010 C 
ENDBRANCH   1   8
TORSDOF 1
ENDMDL
MODEL 3
REMARK VINA RESULT:      -5.6      4.271      6.625
REMARK  1 active torsions:
REMARK  status: ('A' for Active; 'I' for Inactive)
REMARK    1  A    between atoms: C_1  and  C_5 
ROOT
HETATM    1  C   UNK N   1      31.423 -18.285 -76.783  0.00  0.00    -0.029 A 
HETATM    2  C   UNK N   1      32.316 -18.772 -75.641  0.00  0.00     0.023 A 
HETATM    3  C   UNK N   1      32.870 -17.814 -76.698  0.00  0.00     0.020 A 
HETATM    4  C   UNK N   1      30.419 -17.249 -76.257  0.00  0.00     0.015 C 
HETATM    5  C   UNK N   1      31.576 -18.226 -74.456  0.00  0.00    -0.084 C 
HETATM    6  C   UNK N   1      30.290 -17.548 -74.778  0.00  0.00     0.034 C 
HETATM    7  C   UNK N   1      31.997 -18.406 -73.206  0.00  0.00     0.014 C 
ENDROOT
BRANCH   1   8
HETATM    8  C   UNK N   1      31.108 -19.182 -78.000  0.00  0.00    -0.014 C 
HETATM    9  C   UNK N   1      29.596 -19.245 -78.231  0.00  0.00     0.010 C 
HETATM   10  C   UNK N   1      31.825 -18.658 -79.252  0.00  0.00     0.010 C 
ENDBRANCH   1   8
TORSDOF 1
ENDMDL
MODEL 4
REMARK VINA RESULT:      -5.4      4.684      6.810
REMARK  1 active torsions:
REMARK  status: ('A' for Active; 'I' for Inactive)
REMARK    1  A    between atoms: C_1  and  C_5 
ROOT
HETATM    1  C   UNK N   1      31.353 -18.055 -76.311  0.00  0.00    -0.029 A 
HETATM    2  C   UNK N   1      30.688 -18.726 -77.514  0.00  0.00     0.023 A 
HETATM    3  C   UNK N   1      30.652 -17.204 -77.363  0.00  0.00     0.020 A 
HETATM    4  C   UNK N   1      32.880 -18.082 -76.475  0.00  0.00     0.015 C 
HETATM    5  C   UNK N   1      31.873 -19.383 -78.157  0.00  0.00    -0.084 C 
HETATM    6  C   UNK N   1      33.152 -19.245 -77.406  0.00  0.00     0.034 C 
HETATM    7  C   UNK N   1      31.773 -20.103 -79.273  0.00  0.00     0.014 C 
ENDROOT
BRANCH   1   8
HETATM    8  C   UNK N   1      30.681 -18.042 -74.921  0.00  0.00    -0.014 C 
HETATM    9  C   UNK N   1      31.726 -18.285 -73.829  0.00  0.00     0.010 C 
HETATM   10  C   UNK N   1      29.956 -16.710 -74.688  0.00  0.00     0.010 C 
ENDBRANCH   1   8
TORSDOF 1
ENDMDL
MODEL 5
REMARK VINA RESULT:      -5.3      6.401      9.123
REMARK  1 active torsions:
REMARK  status: ('A' for Active; 'I' for Inactive)
REMARK    1  A    between atoms: C_1  and  C_5 
ROOT
HETATM    1  C   UNK N   1      39.465 -25.850 -75.815  0.00  0.00    -0.029 A 
HETATM    2  C   UNK N   1      40.635 -25.836 -74.829  0.00  0.00     0.023 A 
HETATM    3  C   UNK N   1      39.199 -25.681 -74.324  0.00  0.00     0.020 A 
HETATM    4  C   UNK N   1      39.220 -27.282 -76.313  0.00  0.00     0.015 C 
HETATM    5  C   UNK N   1      41.203 -27.206 -75.051  0.00  0.00    -0.084 C 
HETATM    6  C   UNK N   1      40.545 -27.991 -76.132  0.00  0.00     0.034 C 
HETATM    7  C   UNK N   1      42.266 -27.654 -74.387  0.00  0.00     0.014 C 
ENDROOT
BRANCH   1   8
HETATM    8  C   UNK N   1      39.119 -24.616 -76.675  0.00  0.00    -0.014 C 
HETATM    9  C   UNK N   1      39.190 -24.973 -78.162  0.00  0.00     0.010 C 
HETATM   10  C   UNK N   1      37.726 -24.084 -76.313  0.00  0.00     0.010 C 
ENDBRANCH   1   8
TORSDOF 1
ENDMDL
MODEL 6
REMARK VINA RESULT:      -5.1      6.823      8.165
REMARK  1 active torsions:
REMARK  status: ('A' for Active; 'I' for Inactive)
REMARK    1  A    between atoms: C_1  and  C_5 
ROOT
HETATM    1  C   UNK N   1      39.545 -26.333 -75.309  0.00  0.00    -0.029 A 
HETATM    2  C   UNK N   1      39.653 -26.538 -76.821  0.00  0.00     0.023 A 
HETATM    3  C   UNK N   1      38.736 -27.432 -75.986  0.00  0.00     0.020 A 
HETATM    4  C   UNK N   1      38.718 -25.072 -75.011  0.00  0.00     0.015 C 
HETATM    5  C   UNK N   1      39.151 -25.215 -77.319  0.00  0.00    -0.084 C 
HETATM    6  C   UNK N   1      38.846 -24.219 -76.255  0.00  0.00     0.034 C 
HETATM    7  C   UNK N   1      39.063 -24.926 -78.616  0.00  0.00     0.014 C 
ENDROOT
BRANCH   1   8
HETATM    8  C   UNK N   1      40.640 -26.837 -74.346  0.00  0.00    -0.014 C 
HETATM    9  C   UNK N   1      41.612 -25.703 -74.012  0.00  0.00     0.010 C 
HETATM   10  C   UNK N   1      40.009 -27.402 -73.066  0.00  0.00     0.010 C 
ENDBRANCH   1   8
TORSDOF 1
ENDMDL
MODEL 7
REMARK VINA RESULT:      -5.1      4.691      6.200
REMARK  1 active torsions:
REMARK  status: ('A' for Active; 'I' for Inactive)
REMARK    1  A    between atoms: C_1  and  C_5 
ROOT
HETATM    1  C   UNK N   1      31.509 -18.034 -76.163  0.00  0.00    -0.029 A 
HETATM    2  C   UNK N   1      30.025 -17.721 -75.960  0.00  0.00     0.023 A 
HETATM    3  C   UNK N   1      30.453 -18.865 -76.882  0.00  0.00     0.020 A 
HETATM    4  C   UNK N   1      32.073 -18.726 -74.913  0.00  0.00     0.015 C 
HETATM    5  C   UNK N   1      29.888 -17.965 -74.487  0.00  0.00    -0.084 C 
HETATM    6  C   UNK N   1      31.158 -18.299 -73.785  0.00  0.00     0.034 C 
HETATM    7  C   UNK N   1      28.733 -17.814 -73.842  0.00  0.00     0.014 C 
ENDROOT
BRANCH   1   8
HETATM    8  C   UNK N   1      32.395 -17.176 -77.091  0.00  0.00    -0.014 C 
HETATM    9  C   UNK N   1      33.674 -17.936 -77.451  0.00  0.00     0.010 C 
HETATM   10  C   UNK N   1      31.623 -16.786 -78.359  0.00  0.00     0.010 C 
ENDBRANCH   1   8
TORSDOF 1
ENDMDL
MODEL 8
REMARK VINA RESULT:      -5.1      6.270      9.424
REMARK  1 active torsions:
REMARK  status: ('A' for Active; 'I' for Inactive)
REMARK    1  A    between atoms: C_1  and  C_5 
ROOT
HETATM    1  C   UNK N   1      39.669 -26.512 -75.263  0.00  0.00    -0.029 A 
HETATM    2  C   UNK N   1      39.795 -27.616 -76.314  0.00  0.00     0.023 A 
HETATM    3  C   UNK N   1      39.652 -26.155 -76.744  0.00  0.00     0.020 A 
HETATM    4  C   UNK N   1      41.032 -26.264 -74.598  0.00  0.00     0.015 C 
HETATM    5  C   UNK N   1      41.151 -28.164 -75.981  0.00  0.00    -0.084 C 
HETATM    6  C   UNK N   1      41.796 -27.558 -74.783  0.00  0.00     0.034 C 
HETATM    7  C   UNK N   1      41.700 -29.172 -76.656  0.00  0.00     0.014 C 
ENDROOT
BRANCH   1   8
HETATM    8  C   UNK N   1      38.340 -26.252 -74.523  0.00  0.00    -0.014 C 
HETATM    9  C   UNK N   1      38.318 -27.014 -73.195  0.00  0.00     0.010 C 
HETATM   10  C   UNK N   1      38.144 -24.748 -74.285  0.00  0.00     0.010 C 
ENDBRANCH   1   8
TORSDOF 1
ENDMDL
MODEL 9
REMARK VINA RESULT:      -4.9      1.110      3.865
REMARK  1 active torsions:
REMARK  status: ('A' for Active; 'I' for Inactive)
REMARK    1  A    between atoms: C_1  and  C_5 
ROOT
HETATM    1  C   UNK N   1      35.432 -21.119 -72.300  0.00  0.00    -0.029 A 
HETATM    2  C   UNK N   1      35.480 -22.189 -73.392  0.00  0.00     0.023 A 
HETATM    3  C   UNK N   1      34.994 -20.776 -73.719  0.00  0.00     0.020 A 
HETATM    4  C   UNK N   1      36.855 -20.640 -71.975  0.00  0.00     0.015 C 
HETATM    5  C   UNK N   1      36.948 -22.496 -73.418  0.00  0.00    -0.084 C 
HETATM    6  C   UNK N   1      37.756 -21.785 -72.389  0.00  0.00     0.034 C 
HETATM    7  C   UNK N   1      37.475 -23.398 -74.244  0.00  0.00     0.014 C 
ENDROOT
BRANCH   1   8
HETATM    8  C   UNK N   1      34.300 -21.087 -71.251  0.00  0.00    -0.014 C 
HETATM    9  C   UNK N   1      34.835 -21.527 -69.886  0.00  0.00     0.010 C 
HETATM   10  C   UNK N   1      33.689 -19.682 -71.164  0.00  0.00     0.010 C 
ENDBRANCH   1   8
TORSDOF 1
ENDMDL
