MODEL 1
REMARK VINA RESULT:      -6.8      0.000      0.000
REMARK  1 active torsions:
REMARK  status: ('A' for Active; 'I' for Inactive)
REMARK    1  A    between atoms: C_1  and  C_5 
ROOT
HETATM    1  C   UNK N   1      31.724 -18.877 -73.930  0.00  0.00     0.017 C 
HETATM    2  C   UNK N   1      30.761 -17.703 -73.580  0.00  0.00     0.013 C 
HETATM    3  C   UNK N   1      32.655 -18.600 -75.166  0.00  0.00     0.036 C 
HETATM    4  C   UNK N   1      29.461 -17.586 -74.399  0.00  0.00     0.034 C 
HETATM    5  C   UNK N   1      29.673 -17.608 -75.885  0.00  0.00    -0.087 C 
HETATM    6  C   UNK N   1      32.294 -19.352 -76.436  0.00  0.00    -0.024 C 
HETATM    7  C   UNK N   1      32.275 -17.353 -78.026  0.00  0.00     0.037 C 
HETATM    8  C   UNK N   1      32.174 -18.836 -77.693  0.00  0.00    -0.087 C 
HETATM    9  C   UNK N   1      30.910 -16.666 -77.879  0.00  0.00     0.031 C 
HETATM   10  C   UNK N   1      30.495 -16.690 -76.438  0.00  0.00    -0.024 C 
HETATM   11  C   UNK N   1      28.975 -18.717 -76.652  0.00  0.00     0.043 C 
HETATM   12  C   UNK N   1      31.939 -19.782 -78.845  0.00  0.00     0.043 C 
ENDROOT
BRANCH   1  13
HETATM   13  C   UNK N   1      32.596 -19.162 -72.700  0.00  0.00    -0.089 C 
HETATM   14  C   UNK N   1      33.571 -20.317 -72.686  0.00  0.00     0.043 C 
HETATM   15  C   UNK N   1      32.491 -18.374 -71.614  0.00  0.00     0.014 C 
ENDBRANCH   1  13
TORSDOF 1
ENDMDL
MODEL 2
REMARK VINA RESULT:      -6.8      1.310      3.199
REMARK  1 active torsions:
REMARK  status: ('A' for Active; 'I' for Inactive)
REMARK    1  A    between atoms: C_1  and  C_5 
ROOT
HETATM    1  C   UNK N   1      32.173 -18.628 -74.108  0.00  0.00     0.017 C 
HETATM    2  C   UNK N   1      33.050 -19.899 -74.324  0.00  0.00     0.013 C 
HETATM    3  C   UNK N   1      30.925 -18.536 -75.060  0.00  0.00     0.036 C 
HETATM    4  C   UNK N   1      34.066 -19.867 -75.482  0.00  0.00     0.034 C 
HETATM    5  C   UNK N   1      33.477 -19.459 -76.801  0.00  0.00    -0.087 C 
HETATM    6  C   UNK N   1      31.026 -17.505 -76.171  0.00  0.00    -0.024 C 
HETATM    7  C   UNK N   1      30.393 -19.035 -78.117  0.00  0.00     0.037 C 
HETATM    8  C   UNK N   1      30.752 -17.692 -77.494  0.00  0.00    -0.087 C 
HETATM    9  C   UNK N   1      31.659 -19.803 -78.524  0.00  0.00     0.031 C 
HETATM   10  C   UNK N   1      32.436 -20.165 -77.294  0.00  0.00    -0.024 C 
HETATM   11  C   UNK N   1      34.074 -18.228 -77.457  0.00  0.00     0.043 C 
HETATM   12  C   UNK N   1      30.786 -16.498 -78.416  0.00  0.00     0.043 C 
ENDROOT
BRANCH   1  13
HETATM   13  C   UNK N   1      31.694 -18.621 -72.651  0.00  0.00    -0.089 C 
HETATM   14  C   UNK N   1      32.673 -18.477 -71.508  0.00  0.00     0.043 C 
HETATM   15  C   UNK N   1      30.380 -18.748 -72.382  0.00  0.00     0.014 C 
ENDBRANCH   1  13
TORSDOF 1
ENDMDL
MODEL 3
REMARK VINA RESULT:      -6.5      1.617      3.148
REMARK  1 active torsions:
REMARK  status: ('A' for Active; 'I' for Inactive)
REMARK    1  A    between atoms: C_1  and  C_5 
ROOT
HETATM    1  C   UNK N   1      30.869 -18.543 -76.209  0.00  0.00     0.017 C 
HETATM    2  C   UNK N   1      29.772 -17.878 -77.093  0.00  0.00     0.013 C 
HETATM    3  C   UNK N   1      32.313 -18.497 -76.830  0.00  0.00     0.036 C 
HETATM    4  C   UNK N   1      29.188 -18.717 -78.246  0.00  0.00     0.034 C 
HETATM    5  C   UNK N   1      30.226 -19.326 -79.143  0.00  0.00    -0.087 C 
HETATM    6  C   UNK N   1      32.835 -19.820 -77.364  0.00  0.00    -0.024 C 
HETATM    7  C   UNK N   1      33.547 -19.001 -79.676  0.00  0.00     0.037 C 
HETATM    8  C   UNK N   1      33.418 -20.046 -78.576  0.00  0.00    -0.087 C 
HETATM    9  C   UNK N   1      32.292 -18.980 -80.560  0.00  0.00     0.031 C 
HETATM   10  C   UNK N   1      31.121 -18.514 -79.747  0.00  0.00    -0.024 C 
HETATM   11  C   UNK N   1      30.219 -20.840 -79.257  0.00  0.00     0.043 C 
HETATM   12  C   UNK N   1      33.993 -21.412 -78.861  0.00  0.00     0.043 C 
ENDROOT
BRANCH   1  13
HETATM   13  C   UNK N   1      30.886 -17.829 -74.851  0.00  0.00    -0.089 C 
HETATM   14  C   UNK N   1      31.852 -18.240 -73.764  0.00  0.00     0.043 C 
HETATM   15  C   UNK N   1      30.024 -16.819 -74.620  0.00  0.00     0.014 C 
ENDBRANCH   1  13
TORSDOF 1
ENDMDL
MODEL 4
REMARK VINA RESULT:      -6.5      1.960      3.630
REMARK  1 active torsions:
REMARK  status: ('A' for Active; 'I' for Inactive)
REMARK    1  A    between atoms: C_1  and  C_5 
ROOT
HETATM    1  C   UNK N   1      31.763 -18.812 -77.035  0.00  0.00     0.017 C 
HETATM    2  C   UNK N   1      31.949 -17.348 -77.538  0.00  0.00     0.013 C 
HETATM    3  C   UNK N   1      32.170 -19.910 -78.084  0.00  0.00     0.036 C 
HETATM    4  C   UNK N   1      30.838 -16.760 -78.428  0.00  0.00     0.034 C 
HETATM    5  C   UNK N   1      30.469 -17.626 -79.597  0.00  0.00    -0.087 C 
HETATM    6  C   UNK N   1      31.014 -20.655 -78.730  0.00  0.00    -0.024 C 
HETATM    7  C   UNK N   1      31.723 -20.345 -81.165  0.00  0.00     0.037 C 
HETATM    8  C   UNK N   1      30.831 -20.895 -80.060  0.00  0.00    -0.087 C 
HETATM    9  C   UNK N   1      31.253 -18.950 -81.603  0.00  0.00     0.031 C 
HETATM   10  C   UNK N   1      31.436 -17.986 -80.470  0.00  0.00    -0.024 C 
HETATM   11  C   UNK N   1      29.023 -18.082 -79.672  0.00  0.00     0.043 C 
HETATM   12  C   UNK N   1      29.680 -21.775 -80.486  0.00  0.00     0.043 C 
ENDROOT
BRANCH   1  13
HETATM   13  C   UNK N   1      32.608 -18.992 -75.768  0.00  0.00    -0.089 C 
HETATM   14  C   UNK N   1      33.873 -19.820 -75.784  0.00  0.00     0.043 C 
HETATM   15  C   UNK N   1      32.218 -18.406 -74.619  0.00  0.00     0.014 C 
ENDBRANCH   1  13
TORSDOF 1
ENDMDL
MODEL 5
REMARK VINA RESULT:      -6.4      1.885      4.101
REMARK  1 active torsions:
REMARK  status: ('A' for Active; 'I' for Inactive)
REMARK    1  A    between atoms: C_1  and  C_5 
ROOT
HETATM    1  C   UNK N   1      31.087 -18.062 -76.424  0.00  0.00     0.017 C 
HETATM    2  C   UNK N   1      32.324 -19.009 -76.470  0.00  0.00     0.013 C 
HETATM    3  C   UNK N   1      29.754 -18.719 -76.938  0.00  0.00     0.036 C 
HETATM    4  C   UNK N   1      33.046 -19.164 -77.822  0.00  0.00     0.034 C 
HETATM    5  C   UNK N   1      32.134 -19.508 -78.964  0.00  0.00    -0.087 C 
HETATM    6  C   UNK N   1      29.275 -18.242 -78.299  0.00  0.00    -0.024 C 
HETATM    7  C   UNK N   1      28.941 -20.538 -79.369  0.00  0.00     0.037 C 
HETATM    8  C   UNK N   1      28.872 -19.016 -79.347  0.00  0.00    -0.087 C 
HETATM    9  C   UNK N   1      30.314 -21.015 -79.864  0.00  0.00     0.031 C 
HETATM   10  C   UNK N   1      31.365 -20.614 -78.872  0.00  0.00    -0.024 C 
HETATM   11  C   UNK N   1      32.110 -18.533 -80.128  0.00  0.00     0.043 C 
HETATM   12  C   UNK N   1      28.303 -18.340 -80.571  0.00  0.00     0.043 C 
ENDROOT
BRANCH   1  13
HETATM   13  C   UNK N   1      30.892 -17.603 -74.973  0.00  0.00    -0.089 C 
HETATM   14  C   UNK N   1      31.749 -18.154 -73.858  0.00  0.00     0.043 C 
HETATM   15  C   UNK N   1      29.940 -16.694 -74.686  0.00  0.00     0.014 C 
ENDBRANCH   1  13
TORSDOF 1
ENDMDL
MODEL 6
REMARK VINA RESULT:      -6.4      9.117     11.683
REMARK  1 active torsions:
REMARK  status: ('A' for Active; 'I' for Inactive)
REMARK    1  A    between atoms: C_1  and  C_5 
ROOT
HETATM    1  C   UNK N   1      35.676 -21.801 -84.422  0.00  0.00     0.017 C 
HETATM    2  C   UNK N   1      35.352 -21.464 -82.935  0.00  0.00     0.013 C 
HETATM    3  C   UNK N   1      36.148 -23.282 -84.658  0.00  0.00     0.036 C 
HETATM    4  C   UNK N   1      36.537 -21.122 -82.012  0.00  0.00     0.034 C 
HETATM    5  C   UNK N   1      37.646 -22.133 -82.045  0.00  0.00    -0.087 C 
HETATM    6  C   UNK N   1      37.628 -23.456 -84.955  0.00  0.00    -0.024 C 
HETATM    7  C   UNK N   1      38.116 -25.267 -83.220  0.00  0.00     0.037 C 
HETATM    8  C   UNK N   1      38.485 -24.345 -84.376  0.00  0.00    -0.087 C 
HETATM    9  C   UNK N   1      38.327 -24.563 -81.872  0.00  0.00     0.031 C 
HETATM   10  C   UNK N   1      37.361 -23.421 -81.753  0.00  0.00    -0.024 C 
HETATM   11  C   UNK N   1      39.014 -21.625 -82.466  0.00  0.00     0.043 C 
HETATM   12  C   UNK N   1      39.892 -24.449 -84.911  0.00  0.00     0.043 C 
ENDROOT
BRANCH   1  13
HETATM   13  C   UNK N   1      34.417 -21.537 -85.257  0.00  0.00    -0.089 C 
HETATM   14  C   UNK N   1      33.075 -21.320 -84.598  0.00  0.00     0.043 C 
HETATM   15  C   UNK N   1      34.506 -21.499 -86.601  0.00  0.00     0.014 C 
ENDBRANCH   1  13
TORSDOF 1
ENDMDL
MODEL 7
REMARK VINA RESULT:      -6.2      3.383      6.160
REMARK  1 active torsions:
REMARK  status: ('A' for Active; 'I' for Inactive)
REMARK    1  A    between atoms: C_1  and  C_5 
ROOT
HETATM    1  C   UNK N   1      32.080 -19.119 -79.443  0.00  0.00     0.017 C 
HETATM    2  C   UNK N   1      31.533 -18.139 -80.524  0.00  0.00     0.013 C 
HETATM    3  C   UNK N   1      33.632 -19.360 -79.519  0.00  0.00     0.036 C 
HETATM    4  C   UNK N   1      31.270 -18.711 -81.930  0.00  0.00     0.034 C 
HETATM    5  C   UNK N   1      32.432 -19.465 -82.509  0.00  0.00    -0.087 C 
HETATM    6  C   UNK N   1      34.056 -20.716 -80.057  0.00  0.00    -0.024 C 
HETATM    7  C   UNK N   1      35.712 -19.885 -81.815  0.00  0.00     0.037 C 
HETATM    8  C   UNK N   1      34.992 -20.964 -81.017  0.00  0.00    -0.087 C 
HETATM    9  C   UNK N   1      34.900 -19.490 -83.057  0.00  0.00     0.031 C 
HETATM   10  C   UNK N   1      33.622 -18.836 -82.626  0.00  0.00    -0.024 C 
HETATM   11  C   UNK N   1      32.183 -20.918 -82.871  0.00  0.00     0.043 C 
HETATM   12  C   UNK N   1      35.364 -22.396 -81.314  0.00  0.00     0.043 C 
ENDROOT
BRANCH   1  13
HETATM   13  C   UNK N   1      31.727 -18.553 -78.062  0.00  0.00    -0.089 C 
HETATM   14  C   UNK N   1      32.773 -17.878 -77.205  0.00  0.00     0.043 C 
HETATM   15  C   UNK N   1      30.465 -18.659 -77.603  0.00  0.00     0.014 C 
ENDBRANCH   1  13
TORSDOF 1
ENDMDL
MODEL 8
REMARK VINA RESULT:      -6.2      7.951     10.865
REMARK  1 active torsions:
REMARK  status: ('A' for Active; 'I' for Inactive)
REMARK    1  A    between atoms: C_1  and  C_5 
ROOT
HETATM    1  C   UNK N   1      38.615 -24.069 -77.597  0.00  0.00     0.017 C 
HETATM    2  C   UNK N   1      37.087 -24.026 -77.295  0.00  0.00     0.013 C 
HETATM    3  C   UNK N   1      39.306 -25.434 -77.234  0.00  0.00     0.036 C 
HETATM    4  C   UNK N   1      36.661 -23.735 -75.843  0.00  0.00     0.034 C 
HETATM    5  C   UNK N   1      37.328 -24.612 -74.824  0.00  0.00    -0.087 C 
HETATM    6  C   UNK N   1      40.192 -25.409 -76.000  0.00  0.00    -0.024 C 
HETATM    7  C   UNK N   1      39.186 -27.435 -74.813  0.00  0.00     0.037 C 
HETATM    8  C   UNK N   1      40.187 -26.297 -74.965  0.00  0.00    -0.087 C 
HETATM    9  C   UNK N   1      37.921 -26.957 -74.085  0.00  0.00     0.031 C 
HETATM   10  C   UNK N   1      37.208 -25.953 -74.940  0.00  0.00    -0.024 C 
HETATM   11  C   UNK N   1      38.147 -23.908 -73.757  0.00  0.00     0.043 C 
HETATM   12  C   UNK N   1      41.244 -26.169 -73.895  0.00  0.00     0.043 C 
ENDROOT
BRANCH   1  13
HETATM   13  C   UNK N   1      38.814 -23.789 -79.092  0.00  0.00    -0.089 C 
HETATM   14  C   UNK N   1      37.810 -22.973 -79.873  0.00  0.00     0.043 C 
HETATM   15  C   UNK N   1      39.900 -24.278 -79.721  0.00  0.00     0.014 C 
ENDBRANCH   1  13
TORSDOF 1
ENDMDL
MODEL 9
REMARK VINA RESULT:      -6.2      9.293     11.871
REMARK  1 active torsions:
REMARK  status: ('A' for Active; 'I' for Inactive)
REMARK    1  A    between atoms: C_1  and  C_5 
ROOT
HETATM    1  C   UNK N   1      38.134 -22.755 -83.829  0.00  0.00     0.017 C 
HETATM    2  C   UNK N   1      36.903 -22.130 -83.105  0.00  0.00     0.013 C 
HETATM    3  C   UNK N   1      38.892 -23.845 -82.987  0.00  0.00     0.036 C 
HETATM    4  C   UNK N   1      37.178 -21.004 -82.090  0.00  0.00     0.034 C 
HETATM    5  C   UNK N   1      38.216 -21.349 -81.062  0.00  0.00    -0.087 C 
HETATM    6  C   UNK N   1      40.237 -23.417 -82.425  0.00  0.00    -0.024 C 
HETATM    7  C   UNK N   1      39.836 -24.118 -80.002  0.00  0.00     0.037 C 
HETATM    8  C   UNK N   1      40.681 -23.573 -81.145  0.00  0.00    -0.087 C 
HETATM    9  C   UNK N   1      39.039 -22.993 -79.326  0.00  0.00     0.031 C 
HETATM   10  C   UNK N   1      38.034 -22.447 -80.296  0.00  0.00    -0.024 C 
HETATM   11  C   UNK N   1      39.438 -20.448 -81.006  0.00  0.00     0.043 C 
HETATM   12  C   UNK N   1      42.108 -23.198 -80.823  0.00  0.00     0.043 C 
ENDROOT
BRANCH   1  13
HETATM   13  C   UNK N   1      37.647 -23.384 -85.141  0.00  0.00    -0.089 C 
HETATM   14  C   UNK N   1      38.496 -24.388 -85.887  0.00  0.00     0.043 C 
HETATM   15  C   UNK N   1      36.444 -23.037 -85.639  0.00  0.00     0.014 C 
ENDBRANCH   1  13
TORSDOF 1
ENDMDL
