MODEL 1
REMARK VINA RESULT:      -5.5      0.000      0.000
REMARK  3 active torsions:
REMARK  status: ('A' for Active; 'I' for Inactive)
REMARK    1  A    between atoms: O_1  and  C_3 
REMARK    2  A    between atoms: O_1  and  C_13 
REMARK    3  A    between atoms: C_3  and  C_4 
ROOT
HETATM    1  C   UNK N   1      31.352 -18.349 -76.955  0.00  0.00     0.077 C 
HETATM    2  C   UNK N   1      31.054 -19.459 -77.990  0.00  0.00     0.043 C 
HETATM    3  C   UNK N   1      31.188 -16.977 -77.683  0.00  0.00     0.066 C 
HETATM    4  C   UNK N   1      29.612 -19.348 -78.513  0.00  0.00     0.036 C 
HETATM    5  C   UNK N   1      29.260 -17.950 -78.968  0.00  0.00    -0.087 C 
HETATM    6  C   UNK N   1      29.992 -16.880 -78.597  0.00  0.00    -0.021 C 
HETATM    7  C   UNK N   1      28.068 -17.769 -79.865  0.00  0.00     0.043 C 
ENDROOT
BRANCH   1   8
HETATM    8  O   UNK N   1      30.404 -18.408 -75.930  0.00  0.00    -0.310 OA
BRANCH   8   9
HETATM    9  C   UNK N   1      30.437 -17.707 -74.753  0.00  0.00     0.255 C 
HETATM   10  O   UNK N   1      30.045 -16.558 -74.687  0.00  0.00    -0.266 OA
HETATM   11  C   UNK N   1      30.955 -18.375 -73.526  0.00  0.00     0.126 C 
ENDBRANCH   8   9
ENDBRANCH   1   8
BRANCH   1  12
HETATM   12  C   UNK N   1      32.799 -18.475 -76.333  0.00  0.00     0.013 C 
HETATM   13  C   UNK N   1      33.239 -19.919 -76.024  0.00  0.00     0.012 C 
HETATM   14  C   UNK N   1      33.860 -17.788 -77.215  0.00  0.00     0.012 C 
ENDBRANCH   1  12
TORSDOF 3
ENDMDL
MODEL 2
REMARK VINA RESULT:      -5.3      1.726      3.342
REMARK  3 active torsions:
REMARK  status: ('A' for Active; 'I' for Inactive)
REMARK    1  A    between atoms: O_1  and  C_3 
REMARK    2  A    between atoms: O_1  and  C_13 
REMARK    3  A    between atoms: C_3  and  C_4 
ROOT
HETATM    1  C   UNK N   1      30.763 -17.920 -76.754  0.00  0.00     0.077 C 
HETATM    2  C   UNK N   1      30.437 -16.681 -77.620  0.00  0.00     0.043 C 
HETATM    3  C   UNK N   1      30.362 -19.184 -77.580  0.00  0.00     0.066 C 
HETATM    4  C   UNK N   1      31.250 -16.695 -78.925  0.00  0.00     0.036 C 
HETATM    5  C   UNK N   1      31.163 -18.016 -79.655  0.00  0.00    -0.087 C 
HETATM    6  C   UNK N   1      30.743 -19.139 -79.038  0.00  0.00    -0.021 C 
HETATM    7  C   UNK N   1      31.546 -18.057 -81.108  0.00  0.00     0.043 C 
ENDROOT
BRANCH   1   8
HETATM    8  O   UNK N   1      32.140 -17.974 -76.527  0.00  0.00    -0.310 OA
BRANCH   8   9
HETATM    9  C   UNK N   1      32.811 -18.948 -75.834  0.00  0.00     0.255 C 
HETATM   10  O   UNK N   1      32.672 -19.086 -74.634  0.00  0.00    -0.266 OA
HETATM   11  C   UNK N   1      33.724 -19.865 -76.575  0.00  0.00     0.126 C 
ENDBRANCH   8   9
ENDBRANCH   1   8
BRANCH   1  12
HETATM   12  C   UNK N   1      30.007 -17.904 -75.367  0.00  0.00     0.013 C 
HETATM   13  C   UNK N   1      30.048 -16.550 -74.632  0.00  0.00     0.012 C 
HETATM   14  C   UNK N   1      28.546 -18.373 -75.508  0.00  0.00     0.012 C 
ENDBRANCH   1  12
TORSDOF 3
ENDMDL
MODEL 3
REMARK VINA RESULT:      -5.2      1.688      4.327
REMARK  3 active torsions:
REMARK  status: ('A' for Active; 'I' for Inactive)
REMARK    1  A    between atoms: O_1  and  C_3 
REMARK    2  A    between atoms: O_1  and  C_13 
REMARK    3  A    between atoms: C_3  and  C_4 
ROOT
HETATM    1  C   UNK N   1      30.901 -18.142 -77.451  0.00  0.00     0.077 C 
HETATM    2  C   UNK N   1      30.453 -17.014 -76.493  0.00  0.00     0.043 C 
HETATM    3  C   UNK N   1      32.309 -18.624 -76.976  0.00  0.00     0.066 C 
HETATM    4  C   UNK N   1      30.336 -17.532 -75.050  0.00  0.00     0.036 C 
HETATM    5  C   UNK N   1      31.563 -18.292 -74.600  0.00  0.00    -0.087 C 
HETATM    6  C   UNK N   1      32.463 -18.771 -75.483  0.00  0.00    -0.021 C 
HETATM    7  C   UNK N   1      31.776 -18.498 -73.126  0.00  0.00     0.043 C 
ENDROOT
BRANCH   1   8
HETATM    8  O   UNK N   1      30.018 -19.220 -77.338  0.00  0.00    -0.310 OA
BRANCH   8   9
HETATM    9  C   UNK N   1      28.909 -19.445 -78.111  0.00  0.00     0.255 C 
HETATM   10  O   UNK N   1      27.916 -18.750 -78.016  0.00  0.00    -0.266 OA
HETATM   11  C   UNK N   1      28.930 -20.561 -79.099  0.00  0.00     0.126 C 
ENDBRANCH   8   9
ENDBRANCH   1   8
BRANCH   1  12
HETATM   12  C   UNK N   1      30.957 -17.671 -78.957  0.00  0.00     0.013 C 
HETATM   13  C   UNK N   1      31.219 -16.164 -79.146  0.00  0.00     0.012 C 
HETATM   14  C   UNK N   1      31.985 -18.481 -79.770  0.00  0.00     0.012 C 
ENDBRANCH   1  12
TORSDOF 3
ENDMDL
MODEL 4
REMARK VINA RESULT:      -5.2      8.058     10.132
REMARK  3 active torsions:
REMARK  status: ('A' for Active; 'I' for Inactive)
REMARK    1  A    between atoms: O_1  and  C_3 
REMARK    2  A    between atoms: O_1  and  C_13 
REMARK    3  A    between atoms: C_3  and  C_4 
ROOT
HETATM    1  C   UNK N   1      37.932 -22.011 -81.394  0.00  0.00     0.077 C 
HETATM    2  C   UNK N   1      37.620 -20.544 -81.769  0.00  0.00     0.043 C 
HETATM    3  C   UNK N   1      38.997 -22.534 -82.411  0.00  0.00     0.066 C 
HETATM    4  C   UNK N   1      38.879 -19.668 -81.659  0.00  0.00     0.036 C 
HETATM    5  C   UNK N   1      40.070 -20.263 -82.376  0.00  0.00    -0.087 C 
HETATM    6  C   UNK N   1      40.107 -21.565 -82.728  0.00  0.00    -0.021 C 
HETATM    7  C   UNK N   1      41.227 -19.363 -82.709  0.00  0.00     0.043 C 
ENDROOT
BRANCH   1   8
HETATM    8  O   UNK N   1      38.502 -22.049 -80.119  0.00  0.00    -0.310 OA
BRANCH   8   9
HETATM    9  C   UNK N   1      38.455 -23.100 -79.240  0.00  0.00     0.255 C 
HETATM   10  O   UNK N   1      37.652 -23.131 -78.328  0.00  0.00    -0.266 OA
HETATM   11  C   UNK N   1      39.405 -24.235 -79.418  0.00  0.00     0.126 C 
ENDBRANCH   8   9
ENDBRANCH   1   8
BRANCH   1  12
HETATM   12  C   UNK N   1      36.647 -22.929 -81.418  0.00  0.00     0.013 C 
HETATM   13  C   UNK N   1      35.328 -22.189 -81.122  0.00  0.00     0.012 C 
HETATM   14  C   UNK N   1      36.521 -23.699 -82.747  0.00  0.00     0.012 C 
ENDBRANCH   1  12
TORSDOF 3
ENDMDL
MODEL 5
REMARK VINA RESULT:      -5.1      9.491     11.104
REMARK  3 active torsions:
REMARK  status: ('A' for Active; 'I' for Inactive)
REMARK    1  A    between atoms: O_1  and  C_3 
REMARK    2  A    between atoms: O_1  and  C_13 
REMARK    3  A    between atoms: C_3  and  C_4 
ROOT
HETATM    1  C   UNK N   1      37.251 -23.319 -82.971  0.00  0.00     0.077 C 
HETATM    2  C   UNK N   1      37.789 -24.570 -82.240  0.00  0.00     0.043 C 
HETATM    3  C   UNK N   1      38.364 -22.840 -83.957  0.00  0.00     0.066 C 
HETATM    4  C   UNK N   1      38.085 -25.703 -83.237  0.00  0.00     0.036 C 
HETATM    5  C   UNK N   1      38.924 -25.248 -84.409  0.00  0.00    -0.087 C 
HETATM    6  C   UNK N   1      39.057 -23.942 -84.719  0.00  0.00    -0.021 C 
HETATM    7  C   UNK N   1      39.630 -26.289 -85.232  0.00  0.00     0.043 C 
ENDROOT
BRANCH   1   8
HETATM    8  O   UNK N   1      36.131 -23.673 -83.728  0.00  0.00    -0.310 OA
BRANCH   8   9
HETATM    9  C   UNK N   1      35.048 -22.877 -83.997  0.00  0.00     0.255 C 
HETATM   10  O   UNK N   1      34.001 -23.002 -83.393  0.00  0.00    -0.266 OA
HETATM   11  C   UNK N   1      35.166 -21.827 -85.049  0.00  0.00     0.126 C 
ENDBRANCH   8   9
ENDBRANCH   1   8
BRANCH   1  12
HETATM   12  C   UNK N   1      36.859 -22.157 -81.974  0.00  0.00     0.013 C 
HETATM   13  C   UNK N   1      36.586 -22.620 -80.530  0.00  0.00     0.012 C 
HETATM   14  C   UNK N   1      37.913 -21.033 -81.967  0.00  0.00     0.012 C 
ENDBRANCH   1  12
TORSDOF 3
ENDMDL
MODEL 6
REMARK VINA RESULT:      -5.1      2.433      4.621
REMARK  3 active torsions:
REMARK  status: ('A' for Active; 'I' for Inactive)
REMARK    1  A    between atoms: O_1  and  C_3 
REMARK    2  A    between atoms: O_1  and  C_13 
REMARK    3  A    between atoms: C_3  and  C_4 
ROOT
HETATM    1  C   UNK N   1      31.988 -19.325 -78.727  0.00  0.00     0.077 C 
HETATM    2  C   UNK N   1      31.357 -17.982 -78.293  0.00  0.00     0.043 C 
HETATM    3  C   UNK N   1      33.275 -19.534 -77.867  0.00  0.00     0.066 C 
HETATM    4  C   UNK N   1      30.956 -18.017 -76.809  0.00  0.00     0.036 C 
HETATM    5  C   UNK N   1      32.071 -18.509 -75.914  0.00  0.00    -0.087 C 
HETATM    6  C   UNK N   1      33.129 -19.185 -76.407  0.00  0.00    -0.021 C 
HETATM    7  C   UNK N   1      31.988 -18.218 -74.441  0.00  0.00     0.043 C 
ENDROOT
BRANCH   1   8
HETATM    8  O   UNK N   1      31.102 -20.366 -78.435  0.00  0.00    -0.310 OA
BRANCH   8   9
HETATM    9  C   UNK N   1      30.032 -20.758 -79.196  0.00  0.00     0.255 C 
HETATM   10  O   UNK N   1      30.152 -21.571 -80.092  0.00  0.00    -0.266 OA
HETATM   11  C   UNK N   1      28.688 -20.180 -78.908  0.00  0.00     0.126 C 
ENDBRANCH   8   9
ENDBRANCH   1   8
BRANCH   1  12
HETATM   12  C   UNK N   1      32.341 -19.358 -80.267  0.00  0.00     0.013 C 
HETATM   13  C   UNK N   1      31.691 -18.233 -81.095  0.00  0.00     0.012 C 
HETATM   14  C   UNK N   1      33.864 -19.362 -80.502  0.00  0.00     0.012 C 
ENDBRANCH   1  12
TORSDOF 3
ENDMDL
MODEL 7
REMARK VINA RESULT:      -5.1      2.921      4.352
REMARK  3 active torsions:
REMARK  status: ('A' for Active; 'I' for Inactive)
REMARK    1  A    between atoms: O_1  and  C_3 
REMARK    2  A    between atoms: O_1  and  C_13 
REMARK    3  A    between atoms: C_3  and  C_4 
ROOT
HETATM    1  C   UNK N   1      31.879 -18.970 -78.780  0.00  0.00     0.077 C 
HETATM    2  C   UNK N   1      33.417 -19.045 -78.914  0.00  0.00     0.043 C 
HETATM    3  C   UNK N   1      31.343 -18.168 -80.008  0.00  0.00     0.066 C 
HETATM    4  C   UNK N   1      33.821 -19.786 -80.200  0.00  0.00     0.036 C 
HETATM    5  C   UNK N   1      33.105 -19.264 -81.425  0.00  0.00    -0.087 C 
HETATM    6  C   UNK N   1      31.987 -18.515 -81.327  0.00  0.00    -0.021 C 
HETATM    7  C   UNK N   1      33.675 -19.586 -82.779  0.00  0.00     0.043 C 
ENDROOT
BRANCH   1   8
HETATM    8  O   UNK N   1      31.347 -20.261 -78.845  0.00  0.00    -0.310 OA
BRANCH   8   9
HETATM    9  C   UNK N   1      30.083 -20.598 -79.252  0.00  0.00     0.255 C 
HETATM   10  O   UNK N   1      29.097 -20.201 -78.661  0.00  0.00    -0.266 OA
HETATM   11  C   UNK N   1      29.916 -21.463 -80.454  0.00  0.00     0.126 C 
ENDBRANCH   8   9
ENDBRANCH   1   8
BRANCH   1  12
HETATM   12  C   UNK N   1      31.422 -18.286 -77.431  0.00  0.00     0.013 C 
HETATM   13  C   UNK N   1      32.520 -18.203 -76.353  0.00  0.00     0.012 C 
HETATM   14  C   UNK N   1      30.830 -16.884 -77.675  0.00  0.00     0.012 C 
ENDBRANCH   1  12
TORSDOF 3
ENDMDL
MODEL 8
REMARK VINA RESULT:      -5.0      9.085     10.740
REMARK  3 active torsions:
REMARK  status: ('A' for Active; 'I' for Inactive)
REMARK    1  A    between atoms: O_1  and  C_3 
REMARK    2  A    between atoms: O_1  and  C_13 
REMARK    3  A    between atoms: C_3  and  C_4 
ROOT
HETATM    1  C   UNK N   1      38.163 -22.166 -82.378  0.00  0.00     0.077 C 
HETATM    2  C   UNK N   1      39.616 -22.180 -82.906  0.00  0.00     0.043 C 
HETATM    3  C   UNK N   1      37.219 -22.341 -83.610  0.00  0.00     0.066 C 
HETATM    4  C   UNK N   1      39.939 -23.520 -83.588  0.00  0.00     0.036 C 
HETATM    5  C   UNK N   1      38.895 -23.927 -84.603  0.00  0.00    -0.087 C 
HETATM    6  C   UNK N   1      37.665 -23.373 -84.614  0.00  0.00    -0.021 C 
HETATM    7  C   UNK N   1      39.259 -24.967 -85.625  0.00  0.00     0.043 C 
ENDROOT
BRANCH   1   8
HETATM    8  O   UNK N   1      37.969 -23.259 -81.530  0.00  0.00    -0.310 OA
BRANCH   8   9
HETATM    9  C   UNK N   1      38.348 -23.344 -80.216  0.00  0.00     0.255 C 
HETATM   10  O   UNK N   1      37.690 -22.834 -79.330  0.00  0.00    -0.266 OA
HETATM   11  C   UNK N   1      39.591 -24.090 -79.867  0.00  0.00     0.126 C 
ENDBRANCH   8   9
ENDBRANCH   1   8
BRANCH   1  12
HETATM   12  C   UNK N   1      37.815 -20.836 -81.600  0.00  0.00     0.013 C 
HETATM   13  C   UNK N   1      38.889 -19.736 -81.703  0.00  0.00     0.012 C 
HETATM   14  C   UNK N   1      36.448 -20.266 -82.027  0.00  0.00     0.012 C 
ENDBRANCH   1  12
TORSDOF 3
ENDMDL
MODEL 9
REMARK VINA RESULT:      -5.0     11.688     13.827
REMARK  3 active torsions:
REMARK  status: ('A' for Active; 'I' for Inactive)
REMARK    1  A    between atoms: O_1  and  C_3 
REMARK    2  A    between atoms: O_1  and  C_13 
REMARK    3  A    between atoms: C_3  and  C_4 
ROOT
HETATM    1  C   UNK N   1      43.708 -18.293 -82.448  0.00  0.00     0.077 C 
HETATM    2  C   UNK N   1      42.935 -19.087 -83.525  0.00  0.00     0.043 C 
HETATM    3  C   UNK N   1      42.727 -17.227 -81.862  0.00  0.00     0.066 C 
HETATM    4  C   UNK N   1      41.727 -19.814 -82.911  0.00  0.00     0.036 C 
HETATM    5  C   UNK N   1      40.869 -18.906 -82.059  0.00  0.00    -0.087 C 
HETATM    6  C   UNK N   1      41.328 -17.724 -81.600  0.00  0.00    -0.021 C 
HETATM    7  C   UNK N   1      39.467 -19.343 -81.736  0.00  0.00     0.043 C 
ENDROOT
BRANCH   1   8
HETATM    8  O   UNK N   1      44.073 -19.156 -81.411  0.00  0.00    -0.310 OA
BRANCH   8   9
HETATM    9  C   UNK N   1      45.167 -19.030 -80.597  0.00  0.00     0.255 C 
HETATM   10  O   UNK N   1      46.195 -19.643 -80.812  0.00  0.00    -0.266 OA
HETATM   11  C   UNK N   1      45.096 -18.109 -79.426  0.00  0.00     0.126 C 
ENDBRANCH   8   9
ENDBRANCH   1   8
BRANCH   1  12
HETATM   12  C   UNK N   1      45.003 -17.595 -83.024  0.00  0.00     0.013 C 
HETATM   13  C   UNK N   1      45.186 -17.745 -84.546  0.00  0.00     0.012 C 
HETATM   14  C   UNK N   1      45.065 -16.103 -82.639  0.00  0.00     0.012 C 
ENDBRANCH   1  12
TORSDOF 3
ENDMDL
