MODEL 1
REMARK VINA RESULT:      -7.7      0.000      0.000
REMARK  4 active torsions:
REMARK  status: ('A' for Active; 'I' for Inactive)
REMARK    1  A    between atoms: C_1  and  C_5 
REMARK    2  A    between atoms: C_5  and  C_8 
REMARK    3  A    between atoms: C_8  and  C_11 
REMARK    4  A    between atoms: C_11  and  C_12 
ROOT
HETATM    1  C   UNK N   1      33.401 -19.162 -71.649  0.00  0.00    -0.009 C 
HETATM    2  C   UNK N   1      32.923 -18.905 -70.212  0.00  0.00     0.011 C 
ENDROOT
BRANCH   1   3
HETATM    3  C   UNK N   1      34.235 -20.468 -71.683  0.00  0.00    -0.029 A 
HETATM    4  C   UNK N   1      35.508 -20.608 -72.524  0.00  0.00     0.023 A 
HETATM    5  C   UNK N   1      34.201 -21.214 -73.014  0.00  0.00     0.020 A 
HETATM    6  C   UNK N   1      36.376 -21.401 -71.593  0.00  0.00    -0.084 C 
HETATM    7  C   UNK N   1      35.790 -21.650 -70.248  0.00  0.00     0.034 C 
HETATM    8  C   UNK N   1      37.612 -21.783 -71.916  0.00  0.00     0.014 C 
HETATM    9  C   UNK N   1      34.312 -21.403 -70.465  0.00  0.00     0.015 C 
ENDBRANCH   1   3
BRANCH   1  10
HETATM   10  C   UNK N   1      32.182 -19.235 -72.608  0.00  0.00     0.009 C 
BRANCH  10  11
HETATM   11  C   UNK N   1      31.812 -17.876 -73.226  0.00  0.00     0.028 C 
BRANCH  11  12
HETATM   12  C   UNK N   1      31.339 -18.048 -74.654  0.00  0.00    -0.025 C 
HETATM   13  C   UNK N   1      30.046 -18.017 -75.085  0.00  0.00    -0.091 C 
HETATM   14  C   UNK N   1      29.761 -18.202 -76.555  0.00  0.00     0.042 C 
HETATM   15  C   UNK N   1      28.838 -17.819 -74.191  0.00  0.00     0.042 C 
ENDBRANCH  11  12
ENDBRANCH  10  11
ENDBRANCH   1  10
TORSDOF 4
ENDMDL
MODEL 2
REMARK VINA RESULT:      -7.4      1.061      6.386
REMARK  4 active torsions:
REMARK  status: ('A' for Active; 'I' for Inactive)
REMARK    1  A    between atoms: C_1  and  C_5 
REMARK    2  A    between atoms: C_5  and  C_8 
REMARK    3  A    between atoms: C_8  and  C_11 
REMARK    4  A    between atoms: C_11  and  C_12 
ROOT
HETATM    1  C   UNK N   1      32.333 -19.691 -71.771  0.00  0.00    -0.009 C 
HETATM    2  C   UNK N   1      32.792 -19.032 -70.461  0.00  0.00     0.011 C 
ENDROOT
BRANCH   1   3
HETATM    3  C   UNK N   1      31.510 -18.669 -72.595  0.00  0.00    -0.029 A 
HETATM    4  C   UNK N   1      31.924 -18.225 -74.002  0.00  0.00     0.023 A 
HETATM    5  C   UNK N   1      32.193 -17.321 -72.808  0.00  0.00     0.020 A 
HETATM    6  C   UNK N   1      30.590 -18.158 -74.682  0.00  0.00    -0.084 C 
HETATM    7  C   UNK N   1      29.441 -18.621 -73.857  0.00  0.00     0.034 C 
HETATM    8  C   UNK N   1      30.453 -17.789 -75.956  0.00  0.00     0.014 C 
HETATM    9  C   UNK N   1      29.983 -18.560 -72.446  0.00  0.00     0.015 C 
ENDBRANCH   1   3
BRANCH   1  10
HETATM   10  C   UNK N   1      33.564 -20.208 -72.564  0.00  0.00     0.009 C 
BRANCH  10  11
HETATM   11  C   UNK N   1      34.415 -21.219 -71.775  0.00  0.00     0.028 C 
BRANCH  11  12
HETATM   12  C   UNK N   1      35.777 -20.639 -71.457  0.00  0.00    -0.025 C 
HETATM   13  C   UNK N   1      36.982 -21.210 -71.736  0.00  0.00    -0.091 C 
HETATM   14  C   UNK N   1      38.244 -20.481 -71.350  0.00  0.00     0.042 C 
HETATM   15  C   UNK N   1      37.169 -22.557 -72.408  0.00  0.00     0.042 C 
ENDBRANCH  11  12
ENDBRANCH  10  11
ENDBRANCH   1  10
TORSDOF 4
ENDMDL
MODEL 3
REMARK VINA RESULT:      -7.4      3.772      5.929
REMARK  4 active torsions:
REMARK  status: ('A' for Active; 'I' for Inactive)
REMARK    1  A    between atoms: C_1  and  C_5 
REMARK    2  A    between atoms: C_5  and  C_8 
REMARK    3  A    between atoms: C_8  and  C_11 
REMARK    4  A    between atoms: C_11  and  C_12 
ROOT
HETATM    1  C   UNK N   1      31.353 -18.112 -76.668  0.00  0.00    -0.009 C 
HETATM    2  C   UNK N   1      32.823 -18.556 -76.720  0.00  0.00     0.011 C 
ENDROOT
BRANCH   1   3
HETATM    3  C   UNK N   1      30.966 -17.801 -75.200  0.00  0.00    -0.029 A 
HETATM    4  C   UNK N   1      29.561 -18.063 -74.648  0.00  0.00     0.023 A 
HETATM    5  C   UNK N   1      29.979 -16.650 -75.028  0.00  0.00     0.020 A 
HETATM    6  C   UNK N   1      29.886 -18.576 -73.277  0.00  0.00    -0.084 C 
HETATM    7  C   UNK N   1      31.338 -18.749 -73.001  0.00  0.00     0.034 C 
HETATM    8  C   UNK N   1      28.944 -18.929 -72.402  0.00  0.00     0.014 C 
HETATM    9  C   UNK N   1      31.996 -17.894 -74.062  0.00  0.00     0.015 C 
ENDBRANCH   1   3
BRANCH   1  10
HETATM   10  C   UNK N   1      31.138 -16.881 -77.589  0.00  0.00     0.009 C 
BRANCH  10  11
HETATM   11  C   UNK N   1      30.045 -17.097 -78.650  0.00  0.00     0.028 C 
BRANCH  11  12
HETATM   12  C   UNK N   1      29.950 -18.560 -79.030  0.00  0.00    -0.025 C 
HETATM   13  C   UNK N   1      28.955 -19.422 -78.679  0.00  0.00    -0.091 C 
HETATM   14  C   UNK N   1      29.022 -20.851 -79.156  0.00  0.00     0.042 C 
HETATM   15  C   UNK N   1      27.759 -19.062 -77.818  0.00  0.00     0.042 C 
ENDBRANCH  11  12
ENDBRANCH  10  11
ENDBRANCH   1  10
TORSDOF 4
ENDMDL
MODEL 4
REMARK VINA RESULT:      -7.3      1.938      6.920
REMARK  4 active torsions:
REMARK  status: ('A' for Active; 'I' for Inactive)
REMARK    1  A    between atoms: C_1  and  C_5 
REMARK    2  A    between atoms: C_5  and  C_8 
REMARK    3  A    between atoms: C_8  and  C_11 
REMARK    4  A    between atoms: C_11  and  C_12 
ROOT
HETATM    1  C   UNK N   1      30.814 -18.354 -75.339  0.00  0.00    -0.009 C 
HETATM    2  C   UNK N   1      29.378 -17.865 -75.090  0.00  0.00     0.011 C 
ENDROOT
BRANCH   1   3
HETATM    3  C   UNK N   1      31.311 -17.800 -76.698  0.00  0.00    -0.029 A 
HETATM    4  C   UNK N   1      31.934 -18.698 -77.773  0.00  0.00     0.023 A 
HETATM    5  C   UNK N   1      32.825 -17.838 -76.888  0.00  0.00     0.020 A 
HETATM    6  C   UNK N   1      31.345 -18.101 -79.016  0.00  0.00    -0.084 C 
HETATM    7  C   UNK N   1      30.355 -17.015 -78.782  0.00  0.00     0.034 C 
HETATM    8  C   UNK N   1      31.625 -18.564 -80.234  0.00  0.00     0.014 C 
HETATM    9  C   UNK N   1      30.646 -16.583 -77.361  0.00  0.00     0.015 C 
ENDBRANCH   1   3
BRANCH   1  10
HETATM   10  C   UNK N   1      31.734 -17.912 -74.169  0.00  0.00     0.009 C 
BRANCH  10  11
HETATM   11  C   UNK N   1      31.458 -18.670 -72.858  0.00  0.00     0.028 C 
BRANCH  11  12
HETATM   12  C   UNK N   1      32.610 -19.593 -72.521  0.00  0.00    -0.025 C 
HETATM   13  C   UNK N   1      33.313 -19.613 -71.353  0.00  0.00    -0.091 C 
HETATM   14  C   UNK N   1      34.431 -20.611 -71.189  0.00  0.00     0.042 C 
HETATM   15  C   UNK N   1      33.068 -18.686 -70.178  0.00  0.00     0.042 C 
ENDBRANCH  11  12
ENDBRANCH  10  11
ENDBRANCH   1  10
TORSDOF 4
ENDMDL
MODEL 5
REMARK VINA RESULT:      -7.2      3.427      6.057
REMARK  4 active torsions:
REMARK  status: ('A' for Active; 'I' for Inactive)
REMARK    1  A    between atoms: C_1  and  C_5 
REMARK    2  A    between atoms: C_5  and  C_8 
REMARK    3  A    between atoms: C_8  and  C_11 
REMARK    4  A    between atoms: C_11  and  C_12 
ROOT
HETATM    1  C   UNK N   1      32.801 -19.394 -76.380  0.00  0.00    -0.009 C 
HETATM    2  C   UNK N   1      33.795 -20.054 -75.412  0.00  0.00     0.011 C 
ENDROOT
BRANCH   1   3
HETATM    3  C   UNK N   1      31.869 -18.445 -75.586  0.00  0.00    -0.029 A 
HETATM    4  C   UNK N   1      30.379 -18.295 -75.910  0.00  0.00     0.023 A 
HETATM    5  C   UNK N   1      31.370 -17.234 -76.370  0.00  0.00     0.020 A 
HETATM    6  C   UNK N   1      29.797 -18.201 -74.532  0.00  0.00    -0.084 C 
HETATM    7  C   UNK N   1      30.773 -18.389 -73.424  0.00  0.00     0.034 C 
HETATM    8  C   UNK N   1      28.491 -18.042 -74.315  0.00  0.00     0.014 C 
HETATM    9  C   UNK N   1      32.108 -18.147 -74.096  0.00  0.00     0.015 C 
ENDBRANCH   1   3
BRANCH   1  10
HETATM   10  C   UNK N   1      33.571 -18.639 -77.497  0.00  0.00     0.009 C 
BRANCH  10  11
HETATM   11  C   UNK N   1      33.334 -19.222 -78.901  0.00  0.00     0.028 C 
BRANCH  11  12
HETATM   12  C   UNK N   1      32.120 -20.127 -78.907  0.00  0.00    -0.025 C 
HETATM   13  C   UNK N   1      30.861 -19.786 -79.301  0.00  0.00    -0.091 C 
HETATM   14  C   UNK N   1      29.770 -20.826 -79.246  0.00  0.00     0.042 C 
HETATM   15  C   UNK N   1      30.448 -18.413 -79.795  0.00  0.00     0.042 C 
ENDBRANCH  11  12
ENDBRANCH  10  11
ENDBRANCH   1  10
TORSDOF 4
ENDMDL
MODEL 6
REMARK VINA RESULT:      -7.1      1.382      2.647
REMARK  4 active torsions:
REMARK  status: ('A' for Active; 'I' for Inactive)
REMARK    1  A    between atoms: C_1  and  C_5 
REMARK    2  A    between atoms: C_5  and  C_8 
REMARK    3  A    between atoms: C_8  and  C_11 
REMARK    4  A    between atoms: C_11  and  C_12 
ROOT
HETATM    1  C   UNK N   1      34.824 -20.724 -71.101  0.00  0.00    -0.009 C 
HETATM    2  C   UNK N   1      34.952 -21.747 -69.962  0.00  0.00     0.011 C 
ENDROOT
BRANCH   1   3
HETATM    3  C   UNK N   1      35.847 -21.069 -72.212  0.00  0.00    -0.029 A 
HETATM    4  C   UNK N   1      36.966 -22.096 -72.009  0.00  0.00     0.023 A 
HETATM    5  C   UNK N   1      37.275 -20.608 -71.933  0.00  0.00     0.020 A 
HETATM    6  C   UNK N   1      36.974 -22.776 -73.345  0.00  0.00    -0.084 C 
HETATM    7  C   UNK N   1      35.904 -22.333 -74.280  0.00  0.00     0.034 C 
HETATM    8  C   UNK N   1      37.822 -23.761 -73.643  0.00  0.00     0.014 C 
HETATM    9  C   UNK N   1      35.469 -21.004 -73.701  0.00  0.00     0.015 C 
ENDBRANCH   1   3
BRANCH   1  10
HETATM   10  C   UNK N   1      33.370 -20.716 -71.644  0.00  0.00     0.009 C 
BRANCH  10  11
HETATM   11  C   UNK N   1      32.684 -19.343 -71.526  0.00  0.00     0.028 C 
BRANCH  11  12
HETATM   12  C   UNK N   1      32.377 -18.778 -72.897  0.00  0.00    -0.025 C 
HETATM   13  C   UNK N   1      31.139 -18.543 -73.414  0.00  0.00    -0.091 C 
HETATM   14  C   UNK N   1      31.024 -17.967 -74.803  0.00  0.00     0.042 C 
HETATM   15  C   UNK N   1      29.832 -18.829 -72.700  0.00  0.00     0.042 C 
ENDBRANCH  11  12
ENDBRANCH  10  11
ENDBRANCH   1  10
TORSDOF 4
ENDMDL
MODEL 7
REMARK VINA RESULT:      -7.1      5.220      8.273
REMARK  4 active torsions:
REMARK  status: ('A' for Active; 'I' for Inactive)
REMARK    1  A    between atoms: C_1  and  C_5 
REMARK    2  A    between atoms: C_5  and  C_8 
REMARK    3  A    between atoms: C_8  and  C_11 
REMARK    4  A    between atoms: C_11  and  C_12 
ROOT
HETATM    1  C   UNK N   1      37.815 -24.836 -74.916  0.00  0.00    -0.009 C 
HETATM    2  C   UNK N   1      38.397 -23.951 -76.030  0.00  0.00     0.011 C 
ENDROOT
BRANCH   1   3
HETATM    3  C   UNK N   1      38.753 -26.047 -74.685  0.00  0.00    -0.029 A 
HETATM    4  C   UNK N   1      38.876 -27.195 -75.693  0.00  0.00     0.023 A 
HETATM    5  C   UNK N   1      38.037 -27.372 -74.435  0.00  0.00     0.020 A 
HETATM    6  C   UNK N   1      40.349 -27.469 -75.632  0.00  0.00    -0.084 C 
HETATM    7  C   UNK N   1      41.126 -26.531 -74.777  0.00  0.00     0.034 C 
HETATM    8  C   UNK N   1      40.929 -28.427 -76.354  0.00  0.00     0.014 C 
HETATM    9  C   UNK N   1      40.066 -25.907 -73.896  0.00  0.00     0.015 C 
ENDBRANCH   1   3
BRANCH   1  10
HETATM   10  C   UNK N   1      37.627 -24.001 -73.621  0.00  0.00     0.009 C 
BRANCH  10  11
HETATM   11  C   UNK N   1      36.926 -22.653 -73.862  0.00  0.00     0.028 C 
BRANCH  11  12
HETATM   12  C   UNK N   1      37.583 -21.555 -73.052  0.00  0.00    -0.025 C 
HETATM   13  C   UNK N   1      37.280 -21.208 -71.769  0.00  0.00    -0.091 C 
HETATM   14  C   UNK N   1      38.048 -20.087 -71.114  0.00  0.00     0.042 C 
HETATM   15  C   UNK N   1      36.203 -21.860 -70.925  0.00  0.00     0.042 C 
ENDBRANCH  11  12
ENDBRANCH  10  11
ENDBRANCH   1  10
TORSDOF 4
ENDMDL
MODEL 8
REMARK VINA RESULT:      -6.8      4.189      7.263
REMARK  4 active torsions:
REMARK  status: ('A' for Active; 'I' for Inactive)
REMARK    1  A    between atoms: C_1  and  C_5 
REMARK    2  A    between atoms: C_5  and  C_8 
REMARK    3  A    between atoms: C_8  and  C_11 
REMARK    4  A    between atoms: C_11  and  C_12 
ROOT
HETATM    1  C   UNK N   1      32.171 -19.311 -77.222  0.00  0.00    -0.009 C 
HETATM    2  C   UNK N   1      33.291 -20.107 -76.534  0.00  0.00     0.011 C 
ENDROOT
BRANCH   1   3
HETATM    3  C   UNK N   1      31.517 -18.358 -76.191  0.00  0.00    -0.029 A 
HETATM    4  C   UNK N   1      29.999 -18.173 -76.090  0.00  0.00     0.023 A 
HETATM    5  C   UNK N   1      30.849 -17.124 -76.794  0.00  0.00     0.020 A 
HETATM    6  C   UNK N   1      29.821 -18.091 -74.604  0.00  0.00    -0.084 C 
HETATM    7  C   UNK N   1      31.060 -18.318 -73.811  0.00  0.00     0.034 C 
HETATM    8  C   UNK N   1      28.630 -17.911 -74.034  0.00  0.00     0.014 C 
HETATM    9  C   UNK N   1      32.163 -18.090 -74.822  0.00  0.00     0.015 C 
ENDBRANCH   1   3
BRANCH   1  10
HETATM   10  C   UNK N   1      32.744 -18.535 -78.438  0.00  0.00     0.009 C 
BRANCH  10  11
HETATM   11  C   UNK N   1      32.628 -19.308 -79.764  0.00  0.00     0.028 C 
BRANCH  11  12
HETATM   12  C   UNK N   1      33.989 -19.781 -80.228  0.00  0.00    -0.025 C 
HETATM   13  C   UNK N   1      34.543 -19.566 -81.454  0.00  0.00    -0.091 C 
HETATM   14  C   UNK N   1      35.921 -20.108 -81.740  0.00  0.00     0.042 C 
HETATM   15  C   UNK N   1      33.872 -18.818 -82.590  0.00  0.00     0.042 C 
ENDBRANCH  11  12
ENDBRANCH  10  11
ENDBRANCH   1  10
TORSDOF 4
ENDMDL
MODEL 9
REMARK VINA RESULT:      -6.8      4.828      7.869
REMARK  4 active torsions:
REMARK  status: ('A' for Active; 'I' for Inactive)
REMARK    1  A    between atoms: C_1  and  C_5 
REMARK    2  A    between atoms: C_5  and  C_8 
REMARK    3  A    between atoms: C_8  and  C_11 
REMARK    4  A    between atoms: C_11  and  C_12 
ROOT
HETATM    1  C   UNK N   1      37.902 -23.825 -74.859  0.00  0.00    -0.009 C 
HETATM    2  C   UNK N   1      38.665 -24.794 -73.942  0.00  0.00     0.011 C 
ENDROOT
BRANCH   1   3
HETATM    3  C   UNK N   1      37.901 -24.384 -76.304  0.00  0.00    -0.029 A 
HETATM    4  C   UNK N   1      38.255 -23.521 -77.519  0.00  0.00     0.023 A 
HETATM    5  C   UNK N   1      36.799 -23.831 -77.203  0.00  0.00     0.020 A 
HETATM    6  C   UNK N   1      39.048 -24.495 -78.337  0.00  0.00    -0.084 C 
HETATM    7  C   UNK N   1      39.293 -25.809 -77.684  0.00  0.00     0.034 C 
HETATM    8  C   UNK N   1      39.565 -24.179 -79.525  0.00  0.00     0.014 C 
HETATM    9  C   UNK N   1      38.243 -25.855 -76.596  0.00  0.00     0.015 C 
ENDBRANCH   1   3
BRANCH   1  10
HETATM   10  C   UNK N   1      36.459 -23.615 -74.324  0.00  0.00     0.009 C 
BRANCH  10  11
HETATM   11  C   UNK N   1      36.112 -22.138 -74.070  0.00  0.00     0.028 C 
BRANCH  11  12
HETATM   12  C   UNK N   1      37.203 -21.463 -73.266  0.00  0.00    -0.025 C 
HETATM   13  C   UNK N   1      37.223 -21.296 -71.914  0.00  0.00    -0.091 C 
HETATM   14  C   UNK N   1      38.402 -20.602 -71.280  0.00  0.00     0.042 C 
HETATM   15  C   UNK N   1      36.128 -21.750 -70.968  0.00  0.00     0.042 C 
ENDBRANCH  11  12
ENDBRANCH  10  11
ENDBRANCH   1  10
TORSDOF 4
ENDMDL
