MODEL 1
REMARK VINA RESULT:      -6.6      0.000      0.000
REMARK  1 active torsions:
REMARK  status: ('A' for Active; 'I' for Inactive)
REMARK    1  A    between atoms: C_1  and  C_7 
ROOT
HETATM    1  C   UNK N   1      31.803 -19.262 -72.459  0.00  0.00     0.017 C 
HETATM    2  C   UNK N   1      31.980 -18.058 -73.382  0.00  0.00     0.013 C 
HETATM    3  C   UNK N   1      30.427 -19.191 -71.760  0.00  0.00     0.036 C 
HETATM    4  C   UNK N   1      30.905 -18.076 -74.477  0.00  0.00     0.034 C 
HETATM    5  C   UNK N   1      29.510 -18.343 -73.945  0.00  0.00    -0.087 C 
HETATM    6  C   UNK N   1      29.302 -18.832 -72.703  0.00  0.00    -0.024 C 
HETATM    7  C   UNK N   1      28.343 -18.051 -74.847  0.00  0.00     0.043 C 
ENDROOT
BRANCH   1   8
HETATM    8  C   UNK N   1      32.928 -19.355 -71.440  0.00  0.00    -0.089 C 
HETATM    9  C   UNK N   1      34.048 -20.327 -71.684  0.00  0.00     0.043 C 
HETATM   10  C   UNK N   1      32.933 -18.583 -70.337  0.00  0.00     0.014 C 
ENDBRANCH   1   8
TORSDOF 1
ENDMDL
MODEL 2
REMARK VINA RESULT:      -6.5      1.254      2.112
REMARK  1 active torsions:
REMARK  status: ('A' for Active; 'I' for Inactive)
REMARK    1  A    between atoms: C_1  and  C_7 
ROOT
HETATM    1  C   UNK N   1      32.076 -18.498 -72.901  0.00  0.00     0.017 C 
HETATM    2  C   UNK N   1      30.567 -18.686 -73.042  0.00  0.00     0.013 C 
HETATM    3  C   UNK N   1      32.789 -18.992 -74.180  0.00  0.00     0.036 C 
HETATM    4  C   UNK N   1      30.042 -17.850 -74.216  0.00  0.00     0.034 C 
HETATM    5  C   UNK N   1      30.878 -17.988 -75.473  0.00  0.00    -0.087 C 
HETATM    6  C   UNK N   1      32.118 -18.525 -75.450  0.00  0.00    -0.024 C 
HETATM    7  C   UNK N   1      30.289 -17.501 -76.768  0.00  0.00     0.043 C 
ENDROOT
BRANCH   1   8
HETATM    8  C   UNK N   1      32.616 -19.205 -71.669  0.00  0.00    -0.089 C 
HETATM    9  C   UNK N   1      33.130 -20.611 -71.807  0.00  0.00     0.043 C 
HETATM   10  C   UNK N   1      32.642 -18.592 -70.470  0.00  0.00     0.014 C 
ENDBRANCH   1   8
TORSDOF 1
ENDMDL
MODEL 3
REMARK VINA RESULT:      -6.4      2.198      4.469
REMARK  1 active torsions:
REMARK  status: ('A' for Active; 'I' for Inactive)
REMARK    1  A    between atoms: C_1  and  C_7 
ROOT
HETATM    1  C   UNK N   1      31.272 -18.213 -76.045  0.00  0.00     0.017 C 
HETATM    2  C   UNK N   1      30.011 -17.378 -75.830  0.00  0.00     0.013 C 
HETATM    3  C   UNK N   1      32.084 -18.286 -74.732  0.00  0.00     0.036 C 
HETATM    4  C   UNK N   1      29.119 -18.039 -74.771  0.00  0.00     0.034 C 
HETATM    5  C   UNK N   1      29.879 -18.478 -73.535  0.00  0.00    -0.087 C 
HETATM    6  C   UNK N   1      31.227 -18.569 -73.521  0.00  0.00    -0.024 C 
HETATM    7  C   UNK N   1      29.086 -18.820 -72.303  0.00  0.00     0.043 C 
ENDROOT
BRANCH   1   8
HETATM    8  C   UNK N   1      32.120 -17.664 -77.181  0.00  0.00    -0.089 C 
HETATM    9  C   UNK N   1      31.474 -16.766 -78.199  0.00  0.00     0.043 C 
HETATM   10  C   UNK N   1      33.428 -17.966 -77.281  0.00  0.00     0.014 C 
ENDBRANCH   1   8
TORSDOF 1
ENDMDL
MODEL 4
REMARK VINA RESULT:      -6.1      2.253      5.237
REMARK  1 active torsions:
REMARK  status: ('A' for Active; 'I' for Inactive)
REMARK    1  A    between atoms: C_1  and  C_7 
ROOT
HETATM    1  C   UNK N   1      30.545 -18.266 -76.253  0.00  0.00     0.017 C 
HETATM    2  C   UNK N   1      29.735 -17.580 -75.156  0.00  0.00     0.013 C 
HETATM    3  C   UNK N   1      32.052 -18.188 -75.921  0.00  0.00     0.036 C 
HETATM    4  C   UNK N   1      29.952 -18.297 -73.817  0.00  0.00     0.034 C 
HETATM    5  C   UNK N   1      31.409 -18.591 -73.522  0.00  0.00    -0.087 C 
HETATM    6  C   UNK N   1      32.360 -18.520 -74.480  0.00  0.00    -0.024 C 
HETATM    7  C   UNK N   1      31.782 -18.973 -72.116  0.00  0.00     0.043 C 
ENDROOT
BRANCH   1   8
HETATM    8  C   UNK N   1      30.256 -17.668 -77.620  0.00  0.00    -0.089 C 
HETATM    9  C   UNK N   1      29.160 -18.268 -78.457  0.00  0.00     0.043 C 
HETATM   10  C   UNK N   1      30.958 -16.617 -78.082  0.00  0.00     0.014 C 
ENDBRANCH   1   8
TORSDOF 1
ENDMDL
MODEL 5
REMARK VINA RESULT:      -6.1      2.269      5.076
REMARK  1 active torsions:
REMARK  status: ('A' for Active; 'I' for Inactive)
REMARK    1  A    between atoms: C_1  and  C_7 
ROOT
HETATM    1  C   UNK N   1      30.739 -17.563 -76.158  0.00  0.00     0.017 C 
HETATM    2  C   UNK N   1      31.890 -18.556 -76.008  0.00  0.00     0.013 C 
HETATM    3  C   UNK N   1      29.575 -17.962 -75.222  0.00  0.00     0.036 C 
HETATM    4  C   UNK N   1      32.422 -18.526 -74.569  0.00  0.00     0.034 C 
HETATM    5  C   UNK N   1      31.327 -18.571 -73.522  0.00  0.00    -0.087 C 
HETATM    6  C   UNK N   1      30.034 -18.332 -73.831  0.00  0.00    -0.024 C 
HETATM    7  C   UNK N   1      31.718 -18.889 -72.105  0.00  0.00     0.043 C 
ENDROOT
BRANCH   1   8
HETATM    8  C   UNK N   1      30.269 -17.465 -77.600  0.00  0.00    -0.089 C 
HETATM    9  C   UNK N   1      29.237 -18.439 -78.094  0.00  0.00     0.043 C 
HETATM   10  C   UNK N   1      30.759 -16.523 -78.428  0.00  0.00     0.014 C 
ENDBRANCH   1   8
TORSDOF 1
ENDMDL
MODEL 6
REMARK VINA RESULT:      -6.1      2.362      4.681
REMARK  1 active torsions:
REMARK  status: ('A' for Active; 'I' for Inactive)
REMARK    1  A    between atoms: C_1  and  C_7 
ROOT
HETATM    1  C   UNK N   1      35.752 -20.508 -72.040  0.00  0.00     0.017 C 
HETATM    2  C   UNK N   1      34.843 -20.673 -70.824  0.00  0.00     0.013 C 
HETATM    3  C   UNK N   1      34.978 -20.869 -73.328  0.00  0.00     0.036 C 
HETATM    4  C   UNK N   1      33.649 -19.715 -70.929  0.00  0.00     0.034 C 
HETATM    5  C   UNK N   1      32.989 -19.725 -72.294  0.00  0.00    -0.087 C 
HETATM    6  C   UNK N   1      33.593 -20.268 -73.375  0.00  0.00    -0.024 C 
HETATM    7  C   UNK N   1      31.626 -19.103 -72.424  0.00  0.00     0.043 C 
ENDROOT
BRANCH   1   8
HETATM    8  C   UNK N   1      37.016 -21.343 -71.912  0.00  0.00    -0.089 C 
HETATM    9  C   UNK N   1      38.230 -20.727 -71.275  0.00  0.00     0.043 C 
HETATM   10  C   UNK N   1      37.057 -22.615 -72.354  0.00  0.00     0.014 C 
ENDBRANCH   1   8
TORSDOF 1
ENDMDL
MODEL 7
REMARK VINA RESULT:      -6.0      2.193      5.634
REMARK  1 active torsions:
REMARK  status: ('A' for Active; 'I' for Inactive)
REMARK    1  A    between atoms: C_1  and  C_7 
ROOT
HETATM    1  C   UNK N   1      33.869 -20.536 -72.031  0.00  0.00     0.017 C 
HETATM    2  C   UNK N   1      35.174 -20.335 -71.264  0.00  0.00     0.013 C 
HETATM    3  C   UNK N   1      34.164 -20.690 -73.539  0.00  0.00     0.036 C 
HETATM    4  C   UNK N   1      36.076 -21.565 -71.434  0.00  0.00     0.034 C 
HETATM    5  C   UNK N   1      36.182 -22.037 -72.871  0.00  0.00    -0.087 C 
HETATM    6  C   UNK N   1      35.320 -21.621 -73.825  0.00  0.00    -0.024 C 
HETATM    7  C   UNK N   1      37.283 -23.001 -73.218  0.00  0.00     0.043 C 
ENDROOT
BRANCH   1   8
HETATM    8  C   UNK N   1      32.892 -19.398 -71.780  0.00  0.00    -0.089 C 
HETATM    9  C   UNK N   1      32.852 -18.764 -70.418  0.00  0.00     0.043 C 
HETATM   10  C   UNK N   1      32.076 -18.954 -72.755  0.00  0.00     0.014 C 
ENDBRANCH   1   8
TORSDOF 1
ENDMDL
MODEL 8
REMARK VINA RESULT:      -6.0      2.068      3.512
REMARK  1 active torsions:
REMARK  status: ('A' for Active; 'I' for Inactive)
REMARK    1  A    between atoms: C_1  and  C_7 
ROOT
HETATM    1  C   UNK N   1      31.381 -17.941 -74.255  0.00  0.00     0.017 C 
HETATM    2  C   UNK N   1      30.009 -17.824 -74.915  0.00  0.00     0.013 C 
HETATM    3  C   UNK N   1      32.374 -18.621 -75.224  0.00  0.00     0.036 C 
HETATM    4  C   UNK N   1      30.104 -16.947 -76.170  0.00  0.00     0.034 C 
HETATM    5  C   UNK N   1      31.275 -17.304 -77.064  0.00  0.00    -0.087 C 
HETATM    6  C   UNK N   1      32.293 -18.080 -76.632  0.00  0.00    -0.024 C 
HETATM    7  C   UNK N   1      31.283 -16.761 -78.467  0.00  0.00     0.043 C 
ENDROOT
BRANCH   1   8
HETATM    8  C   UNK N   1      31.306 -18.692 -72.935  0.00  0.00    -0.089 C 
HETATM    9  C   UNK N   1      29.956 -18.964 -72.333  0.00  0.00     0.043 C 
HETATM   10  C   UNK N   1      32.421 -19.114 -72.310  0.00  0.00     0.014 C 
ENDBRANCH   1   8
TORSDOF 1
ENDMDL
MODEL 9
REMARK VINA RESULT:      -5.8      2.995      4.859
REMARK  1 active torsions:
REMARK  status: ('A' for Active; 'I' for Inactive)
REMARK    1  A    between atoms: C_1  and  C_7 
ROOT
HETATM    1  C   UNK N   1      30.611 -17.731 -75.875  0.00  0.00     0.017 C 
HETATM    2  C   UNK N   1      29.543 -18.380 -76.753  0.00  0.00     0.013 C 
HETATM    3  C   UNK N   1      32.015 -18.185 -76.334  0.00  0.00     0.036 C 
HETATM    4  C   UNK N   1      29.721 -17.933 -78.211  0.00  0.00     0.034 C 
HETATM    5  C   UNK N   1      31.156 -18.013 -78.692  0.00  0.00    -0.087 C 
HETATM    6  C   UNK N   1      32.191 -18.145 -77.833  0.00  0.00    -0.024 C 
HETATM    7  C   UNK N   1      31.409 -17.934 -80.173  0.00  0.00     0.043 C 
ENDROOT
BRANCH   1   8
HETATM    8  C   UNK N   1      30.390 -18.042 -74.404  0.00  0.00    -0.089 C 
HETATM    9  C   UNK N   1      28.983 -18.126 -73.884  0.00  0.00     0.043 C 
HETATM   10  C   UNK N   1      31.430 -18.244 -73.572  0.00  0.00     0.014 C 
ENDBRANCH   1   8
TORSDOF 1
ENDMDL
