MODEL 1
REMARK VINA RESULT:     -10.3      0.000      0.000
REMARK  4 active torsions:
REMARK  status: ('A' for Active; 'I' for Inactive)
REMARK    1  A    between atoms: N_4  and  C_11 
REMARK    2  A    between atoms: N_5  and  C_12 
REMARK    3  A    between atoms: C_11  and  C_13 
REMARK    4  A    between atoms: C_12  and  C_14 
ROOT
HETATM    1  N   UNK N   1      31.569 -18.805 -79.985  0.00  0.00    -0.064 N 
HETATM    2  N   UNK N   1      32.095 -20.243 -82.467  0.00  0.00    -0.064 N 
HETATM    3  C   UNK N   1      30.892 -18.449 -81.254  0.00  0.00     0.263 C 
HETATM    4  C   UNK N   1      32.883 -19.429 -80.281  0.00  0.00     0.263 C 
HETATM    5  C   UNK N   1      30.761 -19.674 -82.180  0.00  0.00     0.263 C 
HETATM    6  C   UNK N   1      32.732 -20.648 -81.198  0.00  0.00     0.263 C 
HETATM    7  H   UNK N   1      30.973 -19.492 -79.466  0.00  0.00     0.280 HD
HETATM    8  H   UNK N   1      32.671 -19.490 -82.910  0.00  0.00     0.280 HD
ENDROOT
BRANCH   1   9
HETATM    9  C   UNK N   1      31.743 -17.582 -79.158  0.00  0.00     0.279 C 
BRANCH   9  10
HETATM   10  C   UNK N   1      31.560 -17.852 -77.663  0.00  0.00     0.041 A 
HETATM   11  C   UNK N   1      32.658 -18.031 -76.780  0.00  0.00     0.017 A 
HETATM   12  N   UNK N   1      32.432 -18.259 -75.452  0.00  0.00    -0.358 N 
HETATM   13  C   UNK N   1      34.095 -17.991 -77.246  0.00  0.00     0.069 C 
HETATM   14  C   UNK N   1      31.171 -18.297 -74.917  0.00  0.00     0.052 A 
HETATM   15  H   UNK N   1      33.263 -18.392 -74.836  0.00  0.00     0.166 HD
HETATM   16  C   UNK N   1      30.053 -18.114 -75.760  0.00  0.00     0.042 A 
HETATM   17  C   UNK N   1      30.968 -18.507 -73.525  0.00  0.00    -0.034 A 
HETATM   18  C   UNK N   1      30.251 -17.909 -77.134  0.00  0.00     0.194 A 
HETATM   19  C   UNK N   1      28.755 -18.129 -75.215  0.00  0.00     0.018 A 
HETATM   20  O   UNK N   1      29.290 -17.759 -77.870  0.00  0.00    -0.287 OA
HETATM   21  C   UNK N   1      28.566 -18.325 -73.850  0.00  0.00     0.002 A 
HETATM   22  C   UNK N   1      29.660 -18.517 -73.011  0.00  0.00     0.009 A 
HETATM   23  C   UNK N   1      32.122 -18.720 -72.580  0.00  0.00     0.050 C 
ENDBRANCH   9  10
ENDBRANCH   1   9
BRANCH   2  24
HETATM   24  C   UNK N   1      31.991 -21.364 -83.435  0.00  0.00     0.273 C 
BRANCH  24  25
HETATM   25  C   UNK N   1      33.333 -21.748 -84.034  0.00  0.00    -0.030 A 
HETATM   26  C   UNK N   1      34.147 -22.724 -83.409  0.00  0.00     0.048 A 
HETATM   27  C   UNK N   1      35.348 -23.064 -84.018  0.00  0.00     0.105 A 
HETATM   28  O   UNK N   1      36.244 -23.970 -83.629  0.00  0.00    -0.323 OA
HETATM   29  C   UNK N   1      35.766 -22.485 -85.149  0.00  0.00     0.105 A 
HETATM   30  C   UNK N   1      37.292 -23.979 -84.555  0.00  0.00     0.352 A 
HETATM   31  O   UNK N   1      36.942 -23.006 -85.499  0.00  0.00    -0.323 OA
HETATM   32  C   UNK N   1      35.023 -21.503 -85.798  0.00  0.00     0.040 A 
HETATM   33  C   UNK N   1      33.784 -21.136 -85.237  0.00  0.00     0.012 A 
ENDBRANCH  24  25
ENDBRANCH   2  24
TORSDOF 4
ENDMDL
MODEL 2
REMARK VINA RESULT:      -9.6      1.860      2.779
REMARK  4 active torsions:
REMARK  status: ('A' for Active; 'I' for Inactive)
REMARK    1  A    between atoms: N_4  and  C_11 
REMARK    2  A    between atoms: N_5  and  C_12 
REMARK    3  A    between atoms: C_11  and  C_13 
REMARK    4  A    between atoms: C_12  and  C_14 
ROOT
HETATM    1  N   UNK N   1      32.206 -19.441 -78.797  0.00  0.00    -0.064 N 
HETATM    2  N   UNK N   1      31.886 -20.561 -81.472  0.00  0.00    -0.064 N 
HETATM    3  C   UNK N   1      30.890 -19.478 -79.479  0.00  0.00     0.263 C 
HETATM    4  C   UNK N   1      33.289 -19.403 -79.811  0.00  0.00     0.263 C 
HETATM    5  C   UNK N   1      30.805 -20.657 -80.468  0.00  0.00     0.263 C 
HETATM    6  C   UNK N   1      33.191 -20.586 -80.782  0.00  0.00     0.263 C 
HETATM    7  H   UNK N   1      32.309 -20.308 -78.218  0.00  0.00     0.280 HD
HETATM    8  H   UNK N   1      31.780 -19.642 -81.962  0.00  0.00     0.280 HD
ENDROOT
BRANCH   1   9
HETATM    9  C   UNK N   1      32.271 -18.249 -77.914  0.00  0.00     0.279 C 
BRANCH   9  10
HETATM   10  C   UNK N   1      32.433 -18.618 -76.438  0.00  0.00     0.041 A 
HETATM   11  C   UNK N   1      31.579 -18.105 -75.425  0.00  0.00     0.017 A 
HETATM   12  N   UNK N   1      31.767 -18.479 -74.125  0.00  0.00    -0.358 N 
HETATM   13  C   UNK N   1      30.456 -17.137 -75.717  0.00  0.00     0.069 C 
HETATM   14  C   UNK N   1      32.742 -19.365 -73.748  0.00  0.00     0.052 A 
HETATM   15  H   UNK N   1      31.124 -18.076 -73.408  0.00  0.00     0.166 HD
HETATM   16  C   UNK N   1      33.605 -19.904 -74.726  0.00  0.00     0.042 A 
HETATM   17  C   UNK N   1      32.894 -19.759 -72.389  0.00  0.00    -0.034 A 
HETATM   18  C   UNK N   1      33.458 -19.516 -76.067  0.00  0.00     0.194 A 
HETATM   19  C   UNK N   1      34.595 -20.833 -74.351  0.00  0.00     0.018 A 
HETATM   20  O   UNK N   1      34.206 -19.972 -76.916  0.00  0.00    -0.287 OA
HETATM   21  C   UNK N   1      34.730 -21.221 -73.021  0.00  0.00     0.002 A 
HETATM   22  C   UNK N   1      33.892 -20.687 -72.046  0.00  0.00     0.009 A 
HETATM   23  C   UNK N   1      32.010 -19.206 -71.302  0.00  0.00     0.050 C 
ENDBRANCH   9  10
ENDBRANCH   1   9
BRANCH   2  24
HETATM   24  C   UNK N   1      31.757 -21.636 -82.487  0.00  0.00     0.273 C 
BRANCH  24  25
HETATM   25  C   UNK N   1      33.001 -21.782 -83.347  0.00  0.00    -0.030 A 
HETATM   26  C   UNK N   1      33.926 -22.827 -83.102  0.00  0.00     0.048 A 
HETATM   27  C   UNK N   1      35.027 -22.937 -83.941  0.00  0.00     0.105 A 
HETATM   28  O   UNK N   1      35.995 -23.852 -83.917  0.00  0.00    -0.323 OA
HETATM   29  C   UNK N   1      35.253 -22.081 -84.943  0.00  0.00     0.105 A 
HETATM   30  C   UNK N   1      36.889 -23.575 -84.957  0.00  0.00     0.352 A 
HETATM   31  O   UNK N   1      36.374 -22.429 -85.574  0.00  0.00    -0.323 OA
HETATM   32  C   UNK N   1      34.394 -21.020 -85.220  0.00  0.00     0.040 A 
HETATM   33  C   UNK N   1      33.247 -20.875 -84.415  0.00  0.00     0.012 A 
ENDBRANCH  24  25
ENDBRANCH   2  24
TORSDOF 4
ENDMDL
MODEL 3
REMARK VINA RESULT:      -9.6      1.821      2.830
REMARK  4 active torsions:
REMARK  status: ('A' for Active; 'I' for Inactive)
REMARK    1  A    between atoms: N_4  and  C_11 
REMARK    2  A    between atoms: N_5  and  C_12 
REMARK    3  A    between atoms: C_11  and  C_13 
REMARK    4  A    between atoms: C_12  and  C_14 
ROOT
HETATM    1  N   UNK N   1      32.839 -19.336 -80.519  0.00  0.00    -0.064 N 
HETATM    2  N   UNK N   1      34.406 -21.023 -82.310  0.00  0.00    -0.064 N 
HETATM    3  C   UNK N   1      32.228 -20.454 -81.276  0.00  0.00     0.263 C 
HETATM    4  C   UNK N   1      34.027 -18.831 -81.252  0.00  0.00     0.263 C 
HETATM    5  C   UNK N   1      33.256 -21.567 -81.557  0.00  0.00     0.263 C 
HETATM    6  C   UNK N   1      35.040 -19.950 -81.517  0.00  0.00     0.263 C 
HETATM    7  H   UNK N   1      33.140 -19.689 -79.580  0.00  0.00     0.280 HD
HETATM    8  H   UNK N   1      34.035 -20.612 -83.198  0.00  0.00     0.280 HD
ENDROOT
BRANCH   1   9
HETATM    9  C   UNK N   1      31.835 -18.255 -80.339  0.00  0.00     0.279 C 
BRANCH   9  10
HETATM   10  C   UNK N   1      31.262 -18.215 -78.921  0.00  0.00     0.041 A 
HETATM   11  C   UNK N   1      29.865 -18.180 -78.663  0.00  0.00     0.017 A 
HETATM   12  N   UNK N   1      29.413 -18.155 -77.374  0.00  0.00    -0.358 N 
HETATM   13  C   UNK N   1      28.832 -18.158 -79.765  0.00  0.00     0.069 C 
HETATM   14  C   UNK N   1      30.259 -18.191 -76.297  0.00  0.00     0.052 A 
HETATM   15  H   UNK N   1      28.381 -18.123 -77.225  0.00  0.00     0.166 HD
HETATM   16  C   UNK N   1      31.654 -18.235 -76.512  0.00  0.00     0.042 A 
HETATM   17  C   UNK N   1      29.757 -18.193 -74.966  0.00  0.00    -0.034 A 
HETATM   18  C   UNK N   1      32.152 -18.230 -77.824  0.00  0.00     0.194 A 
HETATM   19  C   UNK N   1      32.531 -18.295 -75.411  0.00  0.00     0.018 A 
HETATM   20  O   UNK N   1      33.356 -18.260 -78.016  0.00  0.00    -0.287 OA
HETATM   21  C   UNK N   1      32.030 -18.308 -74.112  0.00  0.00     0.002 A 
HETATM   22  C   UNK N   1      30.657 -18.253 -73.888  0.00  0.00     0.009 A 
HETATM   23  C   UNK N   1      28.280 -18.135 -74.677  0.00  0.00     0.050 C 
ENDBRANCH   9  10
ENDBRANCH   1   9
BRANCH   2  24
HETATM   24  C   UNK N   1      35.357 -22.104 -82.670  0.00  0.00     0.273 C 
BRANCH  24  25
HETATM   25  C   UNK N   1      35.524 -22.262 -84.171  0.00  0.00    -0.030 A 
HETATM   26  C   UNK N   1      36.492 -23.152 -84.698  0.00  0.00     0.048 A 
HETATM   27  C   UNK N   1      36.578 -23.286 -86.077  0.00  0.00     0.105 A 
HETATM   28  O   UNK N   1      37.382 -24.082 -86.781  0.00  0.00    -0.323 OA
HETATM   29  C   UNK N   1      35.802 -22.589 -86.915  0.00  0.00     0.105 A 
HETATM   30  C   UNK N   1      37.111 -23.891 -88.140  0.00  0.00     0.352 A 
HETATM   31  O   UNK N   1      36.101 -22.922 -88.170  0.00  0.00    -0.323 OA
HETATM   32  C   UNK N   1      34.848 -21.683 -86.460  0.00  0.00     0.040 A 
HETATM   33  C   UNK N   1      34.701 -21.524 -85.068  0.00  0.00     0.012 A 
ENDBRANCH  24  25
ENDBRANCH   2  24
TORSDOF 4
ENDMDL
MODEL 4
REMARK VINA RESULT:      -9.3      2.635      3.481
REMARK  4 active torsions:
REMARK  status: ('A' for Active; 'I' for Inactive)
REMARK    1  A    between atoms: N_4  and  C_11 
REMARK    2  A    between atoms: N_5  and  C_12 
REMARK    3  A    between atoms: C_11  and  C_13 
REMARK    4  A    between atoms: C_12  and  C_14 
ROOT
HETATM    1  N   UNK N   1      32.436 -19.242 -80.557  0.00  0.00    -0.064 N 
HETATM    2  N   UNK N   1      33.712 -20.976 -82.525  0.00  0.00    -0.064 N 
HETATM    3  C   UNK N   1      31.682 -20.293 -81.281  0.00  0.00     0.263 C 
HETATM    4  C   UNK N   1      33.585 -18.796 -81.384  0.00  0.00     0.263 C 
HETATM    5  C   UNK N   1      32.601 -21.464 -81.682  0.00  0.00     0.263 C 
HETATM    6  C   UNK N   1      34.490 -19.973 -81.769  0.00  0.00     0.263 C 
HETATM    7  H   UNK N   1      32.796 -19.644 -79.659  0.00  0.00     0.280 HD
HETATM    8  H   UNK N   1      33.292 -20.514 -83.366  0.00  0.00     0.280 HD
ENDROOT
BRANCH   1   9
HETATM    9  C   UNK N   1      31.531 -18.102 -80.258  0.00  0.00     0.279 C 
BRANCH   9  10
HETATM   10  C   UNK N   1      31.051 -18.098 -78.806  0.00  0.00     0.041 A 
HETATM   11  C   UNK N   1      29.675 -18.031 -78.457  0.00  0.00     0.017 A 
HETATM   12  N   UNK N   1      29.306 -18.040 -77.142  0.00  0.00    -0.358 N 
HETATM   13  C   UNK N   1      28.575 -17.937 -79.489  0.00  0.00     0.069 C 
HETATM   14  C   UNK N   1      30.217 -18.141 -76.123  0.00  0.00     0.052 A 
HETATM   15  H   UNK N   1      28.287 -17.983 -76.925  0.00  0.00     0.166 HD
HETATM   16  C   UNK N   1      31.594 -18.219 -76.429  0.00  0.00     0.042 A 
HETATM   17  C   UNK N   1      29.800 -18.178 -74.763  0.00  0.00    -0.034 A 
HETATM   18  C   UNK N   1      32.007 -18.180 -77.769  0.00  0.00     0.194 A 
HETATM   19  C   UNK N   1      32.535 -18.346 -75.389  0.00  0.00     0.018 A 
HETATM   20  O   UNK N   1      33.195 -18.239 -78.039  0.00  0.00    -0.287 OA
HETATM   21  C   UNK N   1      32.118 -18.393 -74.062  0.00  0.00     0.002 A 
HETATM   22  C   UNK N   1      30.764 -18.305 -73.749  0.00  0.00     0.009 A 
HETATM   23  C   UNK N   1      28.347 -18.087 -74.379  0.00  0.00     0.050 C 
ENDBRANCH   9  10
ENDBRANCH   1   9
BRANCH   2  24
HETATM   24  C   UNK N   1      34.550 -22.106 -82.998  0.00  0.00     0.273 C 
BRANCH  24  25
HETATM   25  C   UNK N   1      35.858 -22.226 -82.236  0.00  0.00    -0.030 A 
HETATM   26  C   UNK N   1      35.864 -22.627 -80.877  0.00  0.00     0.048 A 
HETATM   27  C   UNK N   1      37.090 -22.756 -80.238  0.00  0.00     0.105 A 
HETATM   28  O   UNK N   1      37.333 -23.148 -78.987  0.00  0.00    -0.323 OA
HETATM   29  C   UNK N   1      38.249 -22.490 -80.850  0.00  0.00     0.105 A 
HETATM   30  C   UNK N   1      38.716 -23.138 -78.783  0.00  0.00     0.352 A 
HETATM   31  O   UNK N   1      39.254 -22.701 -79.999  0.00  0.00    -0.323 OA
HETATM   32  C   UNK N   1      38.307 -22.070 -82.176  0.00  0.00     0.040 A 
HETATM   33  C   UNK N   1      37.094 -21.945 -82.881  0.00  0.00     0.012 A 
ENDBRANCH  24  25
ENDBRANCH   2  24
TORSDOF 4
ENDMDL
MODEL 5
REMARK VINA RESULT:      -9.0      3.572      5.685
REMARK  4 active torsions:
REMARK  status: ('A' for Active; 'I' for Inactive)
REMARK    1  A    between atoms: N_4  and  C_11 
REMARK    2  A    between atoms: N_5  and  C_12 
REMARK    3  A    between atoms: C_11  and  C_13 
REMARK    4  A    between atoms: C_12  and  C_14 
ROOT
HETATM    1  N   UNK N   1      35.592 -21.354 -81.068  0.00  0.00    -0.064 N 
HETATM    2  N   UNK N   1      38.246 -22.094 -82.026  0.00  0.00    -0.064 N 
HETATM    3  C   UNK N   1      36.002 -22.770 -81.225  0.00  0.00     0.263 C 
HETATM    4  C   UNK N   1      36.363 -20.507 -82.012  0.00  0.00     0.263 C 
HETATM    5  C   UNK N   1      37.524 -22.936 -81.048  0.00  0.00     0.263 C 
HETATM    6  C   UNK N   1      37.873 -20.680 -81.818  0.00  0.00     0.263 C 
HETATM    7  H   UNK N   1      35.801 -21.050 -80.087  0.00  0.00     0.280 HD
HETATM    8  H   UNK N   1      37.938 -22.388 -82.983  0.00  0.00     0.280 HD
ENDROOT
BRANCH   1   9
HETATM    9  C   UNK N   1      34.134 -21.231 -81.322  0.00  0.00     0.279 C 
BRANCH   9  10
HETATM   10  C   UNK N   1      33.449 -20.262 -80.356  0.00  0.00     0.041 A 
HETATM   11  C   UNK N   1      32.597 -19.215 -80.801  0.00  0.00     0.017 A 
HETATM   12  N   UNK N   1      32.005 -18.387 -79.891  0.00  0.00    -0.358 N 
HETATM   13  C   UNK N   1      32.314 -18.960 -82.264  0.00  0.00     0.069 C 
HETATM   14  C   UNK N   1      32.175 -18.538 -78.539  0.00  0.00     0.052 A 
HETATM   15  H   UNK N   1      31.392 -17.626 -80.256  0.00  0.00     0.166 HD
HETATM   16  C   UNK N   1      33.007 -19.572 -78.056  0.00  0.00     0.042 A 
HETATM   17  C   UNK N   1      31.522 -17.678 -77.614  0.00  0.00    -0.034 A 
HETATM   18  C   UNK N   1      33.655 -20.420 -78.968  0.00  0.00     0.194 A 
HETATM   19  C   UNK N   1      33.170 -19.749 -76.669  0.00  0.00     0.018 A 
HETATM   20  O   UNK N   1      34.381 -21.311 -78.557  0.00  0.00    -0.287 OA
HETATM   21  C   UNK N   1      32.518 -18.910 -75.770  0.00  0.00     0.002 A 
HETATM   22  C   UNK N   1      31.705 -17.880 -76.235  0.00  0.00     0.009 A 
HETATM   23  C   UNK N   1      30.633 -16.552 -78.072  0.00  0.00     0.050 C 
ENDBRANCH   9  10
ENDBRANCH   1   9
BRANCH   2  24
HETATM   24  C   UNK N   1      39.710 -22.317 -81.931  0.00  0.00     0.273 C 
BRANCH  24  25
HETATM   25  C   UNK N   1      40.274 -23.038 -83.144  0.00  0.00    -0.030 A 
HETATM   26  C   UNK N   1      41.667 -23.029 -83.403  0.00  0.00     0.048 A 
HETATM   27  C   UNK N   1      42.133 -23.734 -84.505  0.00  0.00     0.105 A 
HETATM   28  O   UNK N   1      43.392 -23.889 -84.914  0.00  0.00    -0.323 OA
HETATM   29  C   UNK N   1      41.315 -24.391 -85.334  0.00  0.00     0.105 A 
HETATM   30  C   UNK N   1      43.386 -24.686 -86.062  0.00  0.00     0.352 A 
HETATM   31  O   UNK N   1      42.035 -24.972 -86.293  0.00  0.00    -0.323 OA
HETATM   32  C   UNK N   1      39.936 -24.418 -85.146  0.00  0.00     0.040 A 
HETATM   33  C   UNK N   1      39.409 -23.739 -84.030  0.00  0.00     0.012 A 
ENDBRANCH  24  25
ENDBRANCH   2  24
TORSDOF 4
ENDMDL
MODEL 6
REMARK VINA RESULT:      -8.9      2.746      3.723
REMARK  4 active torsions:
REMARK  status: ('A' for Active; 'I' for Inactive)
REMARK    1  A    between atoms: N_4  and  C_11 
REMARK    2  A    between atoms: N_5  and  C_12 
REMARK    3  A    between atoms: C_11  and  C_13 
REMARK    4  A    between atoms: C_12  and  C_14 
ROOT
HETATM    1  N   UNK N   1      32.362 -19.472 -80.294  0.00  0.00    -0.064 N 
HETATM    2  N   UNK N   1      34.568 -21.015 -81.415  0.00  0.00    -0.064 N 
HETATM    3  C   UNK N   1      32.581 -19.577 -81.756  0.00  0.00     0.263 C 
HETATM    4  C   UNK N   1      33.654 -19.644 -79.585  0.00  0.00     0.263 C 
HETATM    5  C   UNK N   1      33.276 -20.902 -82.124  0.00  0.00     0.263 C 
HETATM    6  C   UNK N   1      34.327 -20.970 -79.959  0.00  0.00     0.263 C 
HETATM    7  H   UNK N   1      31.704 -20.231 -79.996  0.00  0.00     0.280 HD
HETATM    8  H   UNK N   1      35.151 -20.190 -81.688  0.00  0.00     0.280 HD
ENDROOT
BRANCH   1   9
HETATM    9  C   UNK N   1      31.761 -18.150 -79.978  0.00  0.00     0.279 C 
BRANCH   9  10
HETATM   10  C   UNK N   1      30.767 -18.217 -78.817  0.00  0.00     0.041 A 
HETATM   11  C   UNK N   1      29.402 -18.566 -79.001  0.00  0.00     0.017 A 
HETATM   12  N   UNK N   1      28.564 -18.619 -77.924  0.00  0.00    -0.358 N 
HETATM   13  C   UNK N   1      28.814 -18.878 -80.358  0.00  0.00     0.069 C 
HETATM   14  C   UNK N   1      28.992 -18.375 -76.646  0.00  0.00     0.052 A 
HETATM   15  H   UNK N   1      27.567 -18.872 -78.099  0.00  0.00     0.166 HD
HETATM   16  C   UNK N   1      30.344 -18.034 -76.420  0.00  0.00     0.042 A 
HETATM   17  C   UNK N   1      28.101 -18.467 -75.540  0.00  0.00    -0.034 A 
HETATM   18  C   UNK N   1      31.223 -17.940 -77.510  0.00  0.00     0.194 A 
HETATM   19  C   UNK N   1      30.798 -17.803 -75.107  0.00  0.00     0.018 A 
HETATM   20  O   UNK N   1      32.390 -17.638 -77.323  0.00  0.00    -0.287 OA
HETATM   21  C   UNK N   1      29.922 -17.906 -74.031  0.00  0.00     0.002 A 
HETATM   22  C   UNK N   1      28.585 -18.230 -74.242  0.00  0.00     0.009 A 
HETATM   23  C   UNK N   1      26.647 -18.814 -75.722  0.00  0.00     0.050 C 
ENDBRANCH   9  10
ENDBRANCH   1   9
BRANCH   2  24
HETATM   24  C   UNK N   1      35.292 -22.242 -81.834  0.00  0.00     0.273 C 
BRANCH  24  25
HETATM   25  C   UNK N   1      36.757 -21.983 -82.137  0.00  0.00    -0.030 A 
HETATM   26  C   UNK N   1      37.364 -20.759 -81.761  0.00  0.00     0.048 A 
HETATM   27  C   UNK N   1      38.716 -20.589 -82.029  0.00  0.00     0.105 A 
HETATM   28  O   UNK N   1      39.491 -19.545 -81.736  0.00  0.00    -0.323 OA
HETATM   29  C   UNK N   1      39.447 -21.522 -82.648  0.00  0.00     0.105 A 
HETATM   30  C   UNK N   1      40.787 -19.818 -82.185  0.00  0.00     0.352 A 
HETATM   31  O   UNK N   1      40.702 -21.088 -82.768  0.00  0.00    -0.323 OA
HETATM   32  C   UNK N   1      38.904 -22.734 -83.063  0.00  0.00     0.040 A 
HETATM   33  C   UNK N   1      37.541 -22.972 -82.795  0.00  0.00     0.012 A 
ENDBRANCH  24  25
ENDBRANCH   2  24
TORSDOF 4
ENDMDL
MODEL 7
REMARK VINA RESULT:      -8.8      7.869     11.534
REMARK  4 active torsions:
REMARK  status: ('A' for Active; 'I' for Inactive)
REMARK    1  A    between atoms: N_4  and  C_11 
REMARK    2  A    between atoms: N_5  and  C_12 
REMARK    3  A    between atoms: C_11  and  C_13 
REMARK    4  A    between atoms: C_12  and  C_14 
ROOT
HETATM    1  N   UNK N   1      38.222 -21.992 -80.564  0.00  0.00    -0.064 N 
HETATM    2  N   UNK N   1      37.752 -23.738 -78.275  0.00  0.00    -0.064 N 
HETATM    3  C   UNK N   1      36.969 -22.771 -80.416  0.00  0.00     0.263 C 
HETATM    4  C   UNK N   1      39.324 -22.686 -79.852  0.00  0.00     0.263 C 
HETATM    5  C   UNK N   1      36.638 -23.023 -78.933  0.00  0.00     0.263 C 
HETATM    6  C   UNK N   1      38.979 -22.922 -78.377  0.00  0.00     0.263 C 
HETATM    7  H   UNK N   1      38.082 -21.045 -80.138  0.00  0.00     0.280 HD
HETATM    8  H   UNK N   1      37.899 -24.636 -78.791  0.00  0.00     0.280 HD
ENDROOT
BRANCH   1   9
HETATM    9  C   UNK N   1      38.542 -21.840 -82.006  0.00  0.00     0.279 C 
BRANCH   9  10
HETATM   10  C   UNK N   1      39.889 -21.153 -82.241  0.00  0.00     0.041 A 
HETATM   11  C   UNK N   1      40.988 -21.817 -82.850  0.00  0.00     0.017 A 
HETATM   12  N   UNK N   1      42.164 -21.148 -83.042  0.00  0.00    -0.358 N 
HETATM   13  C   UNK N   1      40.925 -23.259 -83.297  0.00  0.00     0.069 C 
HETATM   14  C   UNK N   1      42.327 -19.833 -82.693  0.00  0.00     0.052 A 
HETATM   15  H   UNK N   1      42.950 -21.671 -83.485  0.00  0.00     0.166 HD
HETATM   16  C   UNK N   1      41.256 -19.136 -82.093  0.00  0.00     0.042 A 
HETATM   17  C   UNK N   1      43.555 -19.155 -82.932  0.00  0.00    -0.034 A 
HETATM   18  C   UNK N   1      40.045 -19.804 -81.854  0.00  0.00     0.194 A 
HETATM   19  C   UNK N   1      41.407 -17.778 -81.752  0.00  0.00     0.018 A 
HETATM   20  O   UNK N   1      39.118 -19.210 -81.329  0.00  0.00    -0.287 OA
HETATM   21  C   UNK N   1      42.608 -17.120 -81.999  0.00  0.00     0.002 A 
HETATM   22  C   UNK N   1      43.675 -17.800 -82.580  0.00  0.00     0.009 A 
HETATM   23  C   UNK N   1      44.735 -19.852 -83.557  0.00  0.00     0.050 C 
ENDBRANCH   9  10
ENDBRANCH   1   9
BRANCH   2  24
HETATM   24  C   UNK N   1      37.405 -24.071 -76.870  0.00  0.00     0.273 C 
BRANCH  24  25
HETATM   25  C   UNK N   1      38.259 -25.194 -76.307  0.00  0.00    -0.030 A 
HETATM   26  C   UNK N   1      38.664 -25.178 -74.949  0.00  0.00     0.048 A 
HETATM   27  C   UNK N   1      39.413 -26.247 -74.476  0.00  0.00     0.105 A 
HETATM   28  O   UNK N   1      39.868 -26.454 -73.241  0.00  0.00    -0.323 OA
HETATM   29  C   UNK N   1      39.782 -27.266 -75.259  0.00  0.00     0.105 A 
HETATM   30  C   UNK N   1      40.562 -27.668 -73.225  0.00  0.00     0.352 A 
HETATM   31  O   UNK N   1      40.485 -28.141 -74.540  0.00  0.00    -0.323 OA
HETATM   32  C   UNK N   1      39.435 -27.329 -76.606  0.00  0.00     0.040 A 
HETATM   33  C   UNK N   1      38.654 -26.282 -77.135  0.00  0.00     0.012 A 
ENDBRANCH  24  25
ENDBRANCH   2  24
TORSDOF 4
ENDMDL
MODEL 8
REMARK VINA RESULT:      -8.7      2.724      4.256
REMARK  4 active torsions:
REMARK  status: ('A' for Active; 'I' for Inactive)
REMARK    1  A    between atoms: N_4  and  C_11 
REMARK    2  A    between atoms: N_5  and  C_12 
REMARK    3  A    between atoms: C_11  and  C_13 
REMARK    4  A    between atoms: C_12  and  C_14 
ROOT
HETATM    1  N   UNK N   1      34.488 -20.640 -80.584  0.00  0.00    -0.064 N 
HETATM    2  N   UNK N   1      36.808 -21.632 -82.048  0.00  0.00    -0.064 N 
HETATM    3  C   UNK N   1      34.873 -22.071 -80.564  0.00  0.00     0.263 C 
HETATM    4  C   UNK N   1      34.960 -20.016 -81.845  0.00  0.00     0.263 C 
HETATM    5  C   UNK N   1      36.391 -22.245 -80.769  0.00  0.00     0.263 C 
HETATM    6  C   UNK N   1      36.472 -20.194 -82.028  0.00  0.00     0.263 C 
HETATM    7  H   UNK N   1      34.943 -20.157 -79.772  0.00  0.00     0.280 HD
HETATM    8  H   UNK N   1      36.263 -22.096 -82.812  0.00  0.00     0.280 HD
ENDROOT
BRANCH   1   9
HETATM    9  C   UNK N   1      33.012 -20.523 -80.461  0.00  0.00     0.279 C 
BRANCH   9  10
HETATM   10  C   UNK N   1      32.582 -19.841 -79.161  0.00  0.00     0.041 A 
HETATM   11  C   UNK N   1      31.495 -18.928 -79.102  0.00  0.00     0.017 A 
HETATM   12  N   UNK N   1      31.151 -18.358 -77.909  0.00  0.00    -0.358 N 
HETATM   13  C   UNK N   1      30.688 -18.539 -80.319  0.00  0.00     0.069 C 
HETATM   14  C   UNK N   1      31.801 -18.651 -76.739  0.00  0.00     0.052 A 
HETATM   15  H   UNK N   1      30.352 -17.687 -77.906  0.00  0.00     0.166 HD
HETATM   16  C   UNK N   1      32.881 -19.561 -76.754  0.00  0.00     0.042 A 
HETATM   17  C   UNK N   1      31.401 -18.063 -75.507  0.00  0.00    -0.034 A 
HETATM   18  C   UNK N   1      33.278 -20.140 -77.969  0.00  0.00     0.194 A 
HETATM   19  C   UNK N   1      33.540 -19.887 -75.553  0.00  0.00     0.018 A 
HETATM   20  O   UNK N   1      34.216 -20.921 -77.990  0.00  0.00    -0.287 OA
HETATM   21  C   UNK N   1      33.135 -19.315 -74.350  0.00  0.00     0.002 A 
HETATM   22  C   UNK N   1      32.079 -18.408 -74.325  0.00  0.00     0.009 A 
HETATM   23  C   UNK N   1      30.265 -17.078 -75.433  0.00  0.00     0.050 C 
ENDBRANCH   9  10
ENDBRANCH   1   9
BRANCH   2  24
HETATM   24  C   UNK N   1      38.249 -21.877 -82.303  0.00  0.00     0.273 C 
BRANCH  24  25
HETATM   25  C   UNK N   1      38.489 -22.750 -83.522  0.00  0.00    -0.030 A 
HETATM   26  C   UNK N   1      39.730 -23.410 -83.701  0.00  0.00     0.048 A 
HETATM   27  C   UNK N   1      39.884 -24.226 -84.814  0.00  0.00     0.105 A 
HETATM   28  O   UNK N   1      40.941 -24.961 -85.160  0.00  0.00    -0.323 OA
HETATM   29  C   UNK N   1      38.918 -24.384 -85.726  0.00  0.00     0.105 A 
HETATM   30  C   UNK N   1      40.642 -25.628 -86.352  0.00  0.00     0.352 A 
HETATM   31  O   UNK N   1      39.343 -25.217 -86.675  0.00  0.00    -0.323 OA
HETATM   32  C   UNK N   1      37.687 -23.744 -85.618  0.00  0.00     0.040 A 
HETATM   33  C   UNK N   1      37.466 -22.923 -84.495  0.00  0.00     0.012 A 
ENDBRANCH  24  25
ENDBRANCH   2  24
TORSDOF 4
ENDMDL
MODEL 9
REMARK VINA RESULT:      -8.7      2.349      2.800
REMARK  4 active torsions:
REMARK  status: ('A' for Active; 'I' for Inactive)
REMARK    1  A    between atoms: N_4  and  C_11 
REMARK    2  A    between atoms: N_5  and  C_12 
REMARK    3  A    between atoms: C_11  and  C_13 
REMARK    4  A    between atoms: C_12  and  C_14 
ROOT
HETATM    1  N   UNK N   1      32.345 -18.767 -79.959  0.00  0.00    -0.064 N 
HETATM    2  N   UNK N   1      33.093 -20.813 -81.898  0.00  0.00    -0.064 N 
HETATM    3  C   UNK N   1      32.012 -20.197 -79.756  0.00  0.00     0.263 C 
HETATM    4  C   UNK N   1      32.457 -18.484 -81.412  0.00  0.00     0.263 C 
HETATM    5  C   UNK N   1      33.037 -21.114 -80.452  0.00  0.00     0.263 C 
HETATM    6  C   UNK N   1      33.484 -19.401 -82.085  0.00  0.00     0.263 C 
HETATM    7  H   UNK N   1      33.265 -18.567 -79.499  0.00  0.00     0.280 HD
HETATM    8  H   UNK N   1      32.130 -20.952 -82.287  0.00  0.00     0.280 HD
ENDROOT
BRANCH   1   9
HETATM    9  C   UNK N   1      31.292 -17.921 -79.339  0.00  0.00     0.279 C 
BRANCH   9  10
HETATM   10  C   UNK N   1      31.236 -18.073 -77.818  0.00  0.00     0.041 A 
HETATM   11  C   UNK N   1      32.406 -18.133 -77.013  0.00  0.00     0.017 A 
HETATM   12  N   UNK N   1      32.292 -18.259 -75.658  0.00  0.00    -0.358 N 
HETATM   13  C   UNK N   1      33.800 -18.074 -77.593  0.00  0.00     0.069 C 
HETATM   14  C   UNK N   1      31.079 -18.303 -75.022  0.00  0.00     0.052 A 
HETATM   15  H   UNK N   1      33.173 -18.307 -75.101  0.00  0.00     0.166 HD
HETATM   16  C   UNK N   1      29.893 -18.237 -75.786  0.00  0.00     0.042 A 
HETATM   17  C   UNK N   1      30.992 -18.405 -73.606  0.00  0.00    -0.034 A 
HETATM   18  C   UNK N   1      29.976 -18.139 -77.184  0.00  0.00     0.194 A 
HETATM   19  C   UNK N   1      28.641 -18.259 -75.140  0.00  0.00     0.018 A 
HETATM   20  O   UNK N   1      28.955 -18.089 -77.850  0.00  0.00    -0.287 OA
HETATM   21  C   UNK N   1      28.566 -18.348 -73.753  0.00  0.00     0.002 A 
HETATM   22  C   UNK N   1      29.729 -18.425 -72.991  0.00  0.00     0.009 A 
HETATM   23  C   UNK N   1      32.223 -18.492 -72.742  0.00  0.00     0.050 C 
ENDBRANCH   9  10
ENDBRANCH   1   9
BRANCH   2  24
HETATM   24  C   UNK N   1      34.005 -21.754 -82.596  0.00  0.00     0.273 C 
BRANCH  24  25
HETATM   25  C   UNK N   1      35.400 -21.771 -81.996  0.00  0.00    -0.030 A 
HETATM   26  C   UNK N   1      36.316 -20.727 -82.276  0.00  0.00     0.048 A 
HETATM   27  C   UNK N   1      37.566 -20.772 -81.672  0.00  0.00     0.105 A 
HETATM   28  O   UNK N   1      38.560 -19.890 -81.764  0.00  0.00    -0.323 OA
HETATM   29  C   UNK N   1      37.936 -21.773 -80.866  0.00  0.00     0.105 A 
HETATM   30  C   UNK N   1      39.624 -20.342 -80.978  0.00  0.00     0.352 A 
HETATM   31  O   UNK N   1      39.178 -21.552 -80.434  0.00  0.00    -0.323 OA
HETATM   32  C   UNK N   1      37.091 -22.839 -80.571  0.00  0.00     0.040 A 
HETATM   33  C   UNK N   1      35.801 -22.832 -81.137  0.00  0.00     0.012 A 
ENDBRANCH  24  25
ENDBRANCH   2  24
TORSDOF 4
ENDMDL
