MODEL 1
REMARK VINA RESULT:      -6.4      0.000      0.000
REMARK  0 active torsions:
REMARK  status: ('A' for Active; 'I' for Inactive)
ROOT
HETATM    1  C   UNK N   1      30.675 -19.425 -79.325  0.00  0.00     0.024 C 
HETATM    2  C   UNK N   1      29.550 -18.391 -78.925  0.00  0.00    -0.040 C 
HETATM    3  C   UNK N   1      31.574 -19.929 -78.156  0.00  0.00     0.022 C 
HETATM    4  C   UNK N   1      30.098 -16.947 -78.755  0.00  0.00     0.010 C 
HETATM    5  C   UNK N   1      32.610 -20.900 -78.746  0.00  0.00     0.014 C 
HETATM    6  C   UNK N   1      32.284 -18.892 -77.289  0.00  0.00    -0.084 C 
HETATM    7  C   UNK N   1      31.063 -16.674 -77.599  0.00  0.00     0.005 C 
HETATM    8  C   UNK N   1      31.477 -19.010 -80.561  0.00  0.00    -0.018 C 
HETATM    9  C   UNK N   1      32.388 -17.425 -77.660  0.00  0.00     0.034 C 
HETATM   10  C   UNK N   1      28.807 -18.841 -77.641  0.00  0.00     0.015 C 
HETATM   11  C   UNK N   1      28.478 -18.339 -80.049  0.00  0.00     0.015 C 
HETATM   12  C   UNK N   1      33.541 -20.165 -79.725  0.00  0.00     0.034 C 
HETATM   13  C   UNK N   1      32.783 -19.331 -80.733  0.00  0.00    -0.087 C 
HETATM   14  C   UNK N   1      32.856 -19.312 -76.143  0.00  0.00     0.014 C 
HETATM   15  C   UNK N   1      33.516 -18.845 -81.958  0.00  0.00     0.043 C 
ENDROOT
TORSDOF 0
ENDMDL
MODEL 2
REMARK VINA RESULT:      -6.3      1.383      4.028
REMARK  0 active torsions:
REMARK  status: ('A' for Active; 'I' for Inactive)
ROOT
HETATM    1  C   UNK N   1      29.192 -18.157 -78.298  0.00  0.00     0.024 C 
HETATM    2  C   UNK N   1      28.187 -19.288 -78.757  0.00  0.00    -0.040 C 
HETATM    3  C   UNK N   1      30.219 -17.690 -79.374  0.00  0.00     0.022 C 
HETATM    4  C   UNK N   1      28.827 -20.703 -78.727  0.00  0.00     0.010 C 
HETATM    5  C   UNK N   1      31.111 -16.614 -78.734  0.00  0.00     0.014 C 
HETATM    6  C   UNK N   1      31.095 -18.746 -80.045  0.00  0.00    -0.084 C 
HETATM    7  C   UNK N   1      29.957 -21.004 -79.713  0.00  0.00     0.005 C 
HETATM    8  C   UNK N   1      29.833 -18.423 -76.934  0.00  0.00    -0.018 C 
HETATM    9  C   UNK N   1      31.221 -20.170 -79.538  0.00  0.00     0.034 C 
HETATM   10  C   UNK N   1      27.610 -18.987 -80.164  0.00  0.00     0.015 C 
HETATM   11  C   UNK N   1      26.973 -19.318 -77.788  0.00  0.00     0.015 C 
HETATM   12  C   UNK N   1      31.931 -17.211 -77.579  0.00  0.00     0.034 C 
HETATM   13  C   UNK N   1      31.083 -18.009 -76.615  0.00  0.00    -0.087 C 
HETATM   14  C   UNK N   1      31.799 -18.381 -81.134  0.00  0.00     0.014 C 
HETATM   15  C   UNK N   1      31.661 -18.351 -75.266  0.00  0.00     0.043 C 
ENDROOT
TORSDOF 0
ENDMDL
MODEL 3
REMARK VINA RESULT:      -6.3      6.782      9.795
REMARK  0 active torsions:
REMARK  status: ('A' for Active; 'I' for Inactive)
ROOT
HETATM    1  C   UNK N   1      38.650 -22.577 -83.674  0.00  0.00     0.024 C 
HETATM    2  C   UNK N   1      38.404 -24.003 -84.311  0.00  0.00    -0.040 C 
HETATM    3  C   UNK N   1      39.822 -22.490 -82.651  0.00  0.00     0.022 C 
HETATM    4  C   UNK N   1      37.618 -24.952 -83.365  0.00  0.00     0.010 C 
HETATM    5  C   UNK N   1      39.886 -21.043 -82.134  0.00  0.00     0.014 C 
HETATM    6  C   UNK N   1      39.825 -23.455 -81.467  0.00  0.00    -0.084 C 
HETATM    7  C   UNK N   1      38.299 -25.407 -82.073  0.00  0.00     0.005 C 
HETATM    8  C   UNK N   1      37.371 -21.898 -83.179  0.00  0.00    -0.018 C 
HETATM    9  C   UNK N   1      38.627 -24.300 -81.078  0.00  0.00     0.034 C 
HETATM   10  C   UNK N   1      39.738 -24.660 -84.747  0.00  0.00     0.015 C 
HETATM   11  C   UNK N   1      37.555 -23.846 -85.603  0.00  0.00     0.015 C 
HETATM   12  C   UNK N   1      38.605 -20.691 -81.359  0.00  0.00     0.034 C 
HETATM   13  C   UNK N   1      37.349 -21.057 -82.117  0.00  0.00    -0.087 C 
HETATM   14  C   UNK N   1      40.948 -23.545 -80.728  0.00  0.00     0.014 C 
HETATM   15  C   UNK N   1      36.040 -20.462 -81.662  0.00  0.00     0.043 C 
ENDROOT
TORSDOF 0
ENDMDL
MODEL 4
REMARK VINA RESULT:      -6.2      7.511     10.402
REMARK  0 active torsions:
REMARK  status: ('A' for Active; 'I' for Inactive)
ROOT
HETATM    1  C   UNK N   1      40.009 -22.401 -82.832  0.00  0.00     0.024 C 
HETATM    2  C   UNK N   1      40.875 -22.237 -81.520  0.00  0.00    -0.040 C 
HETATM    3  C   UNK N   1      38.464 -22.368 -82.628  0.00  0.00     0.022 C 
HETATM    4  C   UNK N   1      40.978 -23.554 -80.704  0.00  0.00     0.010 C 
HETATM    5  C   UNK N   1      37.805 -22.563 -84.003  0.00  0.00     0.014 C 
HETATM    6  C   UNK N   1      37.845 -23.338 -81.623  0.00  0.00    -0.084 C 
HETATM    7  C   UNK N   1      39.705 -24.101 -80.055  0.00  0.00     0.005 C 
HETATM    8  C   UNK N   1      40.469 -23.551 -83.730  0.00  0.00    -0.018 C 
HETATM    9  C   UNK N   1      38.598 -24.508 -81.021  0.00  0.00     0.034 C 
HETATM   10  C   UNK N   1      40.331 -21.091 -80.629  0.00  0.00     0.015 C 
HETATM   11  C   UNK N   1      42.323 -21.831 -81.911  0.00  0.00     0.015 C 
HETATM   12  C   UNK N   1      38.139 -23.954 -84.568  0.00  0.00     0.034 C 
HETATM   13  C   UNK N   1      39.617 -24.267 -84.504  0.00  0.00    -0.087 C 
HETATM   14  C   UNK N   1      36.559 -23.145 -81.270  0.00  0.00     0.014 C 
HETATM   15  C   UNK N   1      40.142 -25.416 -85.328  0.00  0.00     0.043 C 
ENDROOT
TORSDOF 0
ENDMDL
MODEL 5
REMARK VINA RESULT:      -6.1      7.554      9.504
REMARK  0 active torsions:
REMARK  status: ('A' for Active; 'I' for Inactive)
ROOT
HETATM    1  C   UNK N   1      39.472 -23.332 -82.760  0.00  0.00     0.024 C 
HETATM    2  C   UNK N   1      38.083 -23.820 -83.336  0.00  0.00    -0.040 C 
HETATM    3  C   UNK N   1      39.853 -23.891 -81.356  0.00  0.00     0.022 C 
HETATM    4  C   UNK N   1      36.880 -23.048 -82.727  0.00  0.00     0.010 C 
HETATM    5  C   UNK N   1      41.213 -23.290 -80.965  0.00  0.00     0.014 C 
HETATM    6  C   UNK N   1      38.864 -23.703 -80.208  0.00  0.00    -0.084 C 
HETATM    7  C   UNK N   1      36.578 -23.242 -81.240  0.00  0.00     0.005 C 
HETATM    8  C   UNK N   1      39.690 -21.822 -82.882  0.00  0.00    -0.018 C 
HETATM    9  C   UNK N   1      37.668 -22.775 -80.282  0.00  0.00     0.034 C 
HETATM   10  C   UNK N   1      37.901 -25.347 -83.139  0.00  0.00     0.015 C 
HETATM   11  C   UNK N   1      38.051 -23.574 -84.870  0.00  0.00     0.015 C 
HETATM   12  C   UNK N   1      41.103 -21.764 -80.811  0.00  0.00     0.034 C 
HETATM   13  C   UNK N   1      40.415 -21.109 -81.987  0.00  0.00    -0.087 C 
HETATM   14  C   UNK N   1      39.080 -24.392 -79.070  0.00  0.00     0.014 C 
HETATM   15  C   UNK N   1      40.545 -19.616 -82.152  0.00  0.00     0.043 C 
ENDROOT
TORSDOF 0
ENDMDL
MODEL 6
REMARK VINA RESULT:      -6.0      6.469      8.974
REMARK  0 active torsions:
REMARK  status: ('A' for Active; 'I' for Inactive)
ROOT
HETATM    1  C   UNK N   1      37.385 -23.556 -82.316  0.00  0.00     0.024 C 
HETATM    2  C   UNK N   1      37.156 -22.635 -81.052  0.00  0.00    -0.040 C 
HETATM    3  C   UNK N   1      38.866 -23.947 -82.606  0.00  0.00     0.022 C 
HETATM    4  C   UNK N   1      37.471 -21.141 -81.336  0.00  0.00     0.010 C 
HETATM    5  C   UNK N   1      38.881 -24.817 -83.874  0.00  0.00     0.014 C 
HETATM    6  C   UNK N   1      39.897 -22.829 -82.741  0.00  0.00    -0.084 C 
HETATM    7  C   UNK N   1      38.922 -20.753 -81.626  0.00  0.00     0.005 C 
HETATM    8  C   UNK N   1      36.636 -23.081 -83.563  0.00  0.00    -0.018 C 
HETATM    9  C   UNK N   1      39.527 -21.366 -82.884  0.00  0.00     0.034 C 
HETATM   10  C   UNK N   1      37.977 -23.138 -79.837  0.00  0.00     0.015 C 
HETATM   11  C   UNK N   1      35.663 -22.712 -80.627  0.00  0.00     0.015 C 
HETATM   12  C   UNK N   1      38.400 -24.006 -85.088  0.00  0.00     0.034 C 
HETATM   13  C   UNK N   1      37.107 -23.270 -84.820  0.00  0.00    -0.087 C 
HETATM   14  C   UNK N   1      41.201 -23.171 -82.747  0.00  0.00     0.014 C 
HETATM   15  C   UNK N   1      36.332 -22.731 -85.996  0.00  0.00     0.043 C 
ENDROOT
TORSDOF 0
ENDMDL
MODEL 7
REMARK VINA RESULT:      -6.0      7.074      9.648
REMARK  0 active torsions:
REMARK  status: ('A' for Active; 'I' for Inactive)
ROOT
HETATM    1  C   UNK N   1      37.915 -24.021 -82.185  0.00  0.00     0.024 C 
HETATM    2  C   UNK N   1      38.685 -24.105 -83.562  0.00  0.00    -0.040 C 
HETATM    3  C   UNK N   1      37.344 -22.618 -81.817  0.00  0.00     0.022 C 
HETATM    4  C   UNK N   1      40.138 -23.564 -83.468  0.00  0.00     0.010 C 
HETATM    5  C   UNK N   1      36.656 -22.737 -80.447  0.00  0.00     0.014 C 
HETATM    6  C   UNK N   1      38.299 -21.427 -81.806  0.00  0.00    -0.084 C 
HETATM    7  C   UNK N   1      40.335 -22.070 -83.201  0.00  0.00     0.005 C 
HETATM    8  C   UNK N   1      38.658 -24.688 -81.025  0.00  0.00    -0.018 C 
HETATM    9  C   UNK N   1      39.808 -21.567 -81.862  0.00  0.00     0.034 C 
HETATM   10  C   UNK N   1      37.908 -23.371 -84.685  0.00  0.00     0.015 C 
HETATM   11  C   UNK N   1      38.783 -25.592 -84.004  0.00  0.00     0.015 C 
HETATM   12  C   UNK N   1      37.683 -23.088 -79.358  0.00  0.00     0.034 C 
HETATM   13  C   UNK N   1      38.566 -24.252 -79.745  0.00  0.00    -0.087 C 
HETATM   14  C   UNK N   1      37.766 -20.191 -81.730  0.00  0.00     0.014 C 
HETATM   15  C   UNK N   1      39.366 -24.935 -78.665  0.00  0.00     0.043 C 
ENDROOT
TORSDOF 0
ENDMDL
MODEL 8
REMARK VINA RESULT:      -5.9      1.439      3.697
REMARK  0 active torsions:
REMARK  status: ('A' for Active; 'I' for Inactive)
ROOT
HETATM    1  C   UNK N   1      29.888 -19.184 -77.407  0.00  0.00     0.024 C 
HETATM    2  C   UNK N   1      30.514 -18.051 -76.499  0.00  0.00    -0.040 C 
HETATM    3  C   UNK N   1      30.826 -19.755 -78.513  0.00  0.00     0.022 C 
HETATM    4  C   UNK N   1      30.507 -16.660 -77.191  0.00  0.00     0.010 C 
HETATM    5  C   UNK N   1      30.036 -20.819 -79.294  0.00  0.00     0.014 C 
HETATM    6  C   UNK N   1      31.470 -18.778 -79.493  0.00  0.00    -0.084 C 
HETATM    7  C   UNK N   1      31.393 -16.464 -78.423  0.00  0.00     0.005 C 
HETATM    8  C   UNK N   1      28.487 -18.852 -77.923  0.00  0.00    -0.018 C 
HETATM    9  C   UNK N   1      31.042 -17.329 -79.628  0.00  0.00     0.034 C 
HETATM   10  C   UNK N   1      31.949 -18.423 -76.049  0.00  0.00     0.015 C 
HETATM   11  C   UNK N   1      29.673 -17.915 -75.199  0.00  0.00     0.015 C 
HETATM   12  C   UNK N   1      28.844 -20.177 -80.023  0.00  0.00     0.034 C 
HETATM   13  C   UNK N   1      28.020 -19.288 -79.119  0.00  0.00    -0.087 C 
HETATM   14  C   UNK N   1      32.460 -19.237 -80.284  0.00  0.00     0.014 C 
HETATM   15  C   UNK N   1      26.643 -18.879 -79.577  0.00  0.00     0.043 C 
ENDROOT
TORSDOF 0
ENDMDL
MODEL 9
REMARK VINA RESULT:      -5.8      1.170      3.972
REMARK  0 active torsions:
REMARK  status: ('A' for Active; 'I' for Inactive)
ROOT
HETATM    1  C   UNK N   1      30.565 -18.277 -79.789  0.00  0.00     0.024 C 
HETATM    2  C   UNK N   1      31.102 -19.221 -80.938  0.00  0.00    -0.040 C 
HETATM    3  C   UNK N   1      31.631 -17.794 -78.760  0.00  0.00     0.022 C 
HETATM    4  C   UNK N   1      31.280 -20.691 -80.468  0.00  0.00     0.010 C 
HETATM    5  C   UNK N   1      30.916 -16.914 -77.722  0.00  0.00     0.014 C 
HETATM    6  C   UNK N   1      32.474 -18.846 -78.043  0.00  0.00    -0.084 C 
HETATM    7  C   UNK N   1      32.358 -20.988 -79.423  0.00  0.00     0.005 C 
HETATM    8  C   UNK N   1      29.282 -18.785 -79.128  0.00  0.00    -0.018 C 
HETATM    9  C   UNK N   1      32.153 -20.328 -78.064  0.00  0.00     0.034 C 
HETATM   10  C   UNK N   1      32.426 -18.680 -81.534  0.00  0.00     0.015 C 
HETATM   11  C   UNK N   1      30.077 -19.239 -82.106  0.00  0.00     0.015 C 
HETATM   12  C   UNK N   1      29.890 -17.742 -76.930  0.00  0.00     0.034 C 
HETATM   13  C   UNK N   1      28.985 -18.557 -77.825  0.00  0.00    -0.087 C 
HETATM   14  C   UNK N   1      33.549 -18.426 -77.346  0.00  0.00     0.014 C 
HETATM   15  C   UNK N   1      27.722 -19.131 -77.235  0.00  0.00     0.043 C 
ENDROOT
TORSDOF 0
ENDMDL
