MODEL 1
REMARK VINA RESULT:      -6.3      0.000      0.000
REMARK  5 active torsions:
REMARK  status: ('A' for Active; 'I' for Inactive)
REMARK    1  A    between atoms: O_1  and  C_12 
REMARK    2  A    between atoms: C_3  and  C_4 
REMARK    3  A    between atoms: C_3  and  C_5 
REMARK    4  A    between atoms: C_4  and  C_6 
REMARK    5  A    between atoms: C_9  and  C_12 
ROOT
HETATM    1  C   UNK N   1      34.603 -20.890 -72.313  0.00  0.00    -0.077 C 
HETATM    2  C   UNK N   1      34.541 -21.387 -73.739  0.00  0.00     0.043 C 
HETATM    3  C   UNK N   1      35.795 -20.721 -71.670  0.00  0.00     0.083 C 
ENDROOT
BRANCH   1   4
HETATM    4  C   UNK N   1      33.265 -20.597 -71.631  0.00  0.00     0.038 C 
BRANCH   4   5
HETATM    5  C   UNK N   1      32.830 -19.120 -71.577  0.00  0.00     0.031 C 
BRANCH   5   6
HETATM    6  C   UNK N   1      31.426 -18.928 -72.098  0.00  0.00    -0.024 C 
HETATM    7  C   UNK N   1      31.108 -18.566 -73.366  0.00  0.00    -0.091 C 
HETATM    8  C   UNK N   1      29.658 -18.440 -73.757  0.00  0.00     0.042 C 
HETATM    9  C   UNK N   1      32.138 -18.306 -74.441  0.00  0.00     0.042 C 
ENDBRANCH   5   6
ENDBRANCH   4   5
ENDBRANCH   1   4
BRANCH   3  10
HETATM   10  C   UNK N   1      37.140 -20.996 -72.246  0.00  0.00     0.165 C 
HETATM   11  O   UNK N   1      37.649 -22.102 -72.193  0.00  0.00    -0.647 OA
BRANCH  10  12
HETATM   12  O   UNK N   1      37.813 -19.980 -72.831  0.00  0.00    -0.773 OA
HETATM   13  H   UNK N   1      38.763 -20.045 -73.006  0.00  0.00     0.167 HD
ENDBRANCH  10  12
ENDBRANCH   3  10
TORSDOF 5
ENDMDL
MODEL 2
REMARK VINA RESULT:      -6.1      1.647      2.894
REMARK  5 active torsions:
REMARK  status: ('A' for Active; 'I' for Inactive)
REMARK    1  A    between atoms: O_1  and  C_12 
REMARK    2  A    between atoms: C_3  and  C_4 
REMARK    3  A    between atoms: C_3  and  C_5 
REMARK    4  A    between atoms: C_4  and  C_6 
REMARK    5  A    between atoms: C_9  and  C_12 
ROOT
HETATM    1  C   UNK N   1      32.934 -19.478 -71.631  0.00  0.00    -0.077 C 
HETATM    2  C   UNK N   1      33.101 -18.754 -70.315  0.00  0.00     0.043 C 
HETATM    3  C   UNK N   1      33.844 -20.404 -72.052  0.00  0.00     0.083 C 
ENDROOT
BRANCH   1   4
HETATM    4  C   UNK N   1      31.704 -19.113 -72.463  0.00  0.00     0.038 C 
BRANCH   4   5
HETATM    5  C   UNK N   1      31.803 -17.829 -73.309  0.00  0.00     0.031 C 
BRANCH   5   6
HETATM    6  C   UNK N   1      31.354 -18.059 -74.732  0.00  0.00    -0.024 C 
HETATM    7  C   UNK N   1      30.068 -18.012 -75.161  0.00  0.00    -0.091 C 
HETATM    8  C   UNK N   1      29.768 -18.234 -76.621  0.00  0.00     0.042 C 
HETATM    9  C   UNK N   1      28.898 -17.715 -74.253  0.00  0.00     0.042 C 
ENDBRANCH   5   6
ENDBRANCH   4   5
ENDBRANCH   1   4
BRANCH   3  10
HETATM   10  C   UNK N   1      35.075 -20.810 -71.319  0.00  0.00     0.165 C 
HETATM   11  O   UNK N   1      36.181 -20.420 -71.654  0.00  0.00    -0.647 OA
BRANCH  10  12
HETATM   12  O   UNK N   1      34.954 -21.644 -70.264  0.00  0.00    -0.773 OA
HETATM   13  H   UNK N   1      34.283 -21.495 -69.582  0.00  0.00     0.167 HD
ENDBRANCH  10  12
ENDBRANCH   3  10
TORSDOF 5
ENDMDL
MODEL 3
REMARK VINA RESULT:      -5.9      5.126      6.859
REMARK  5 active torsions:
REMARK  status: ('A' for Active; 'I' for Inactive)
REMARK    1  A    between atoms: O_1  and  C_12 
REMARK    2  A    between atoms: C_3  and  C_4 
REMARK    3  A    between atoms: C_3  and  C_5 
REMARK    4  A    between atoms: C_4  and  C_6 
REMARK    5  A    between atoms: C_9  and  C_12 
ROOT
HETATM    1  C   UNK N   1      38.424 -24.896 -74.768  0.00  0.00    -0.077 C 
HETATM    2  C   UNK N   1      39.421 -25.069 -75.891  0.00  0.00     0.043 C 
HETATM    3  C   UNK N   1      38.195 -25.891 -73.862  0.00  0.00     0.083 C 
ENDROOT
BRANCH   1   4
HETATM    4  C   UNK N   1      37.684 -23.559 -74.709  0.00  0.00     0.038 C 
BRANCH   4   5
HETATM    5  C   UNK N   1      37.041 -23.188 -73.359  0.00  0.00     0.031 C 
BRANCH   5   6
HETATM    6  C   UNK N   1      37.745 -22.025 -72.702  0.00  0.00    -0.024 C 
HETATM    7  C   UNK N   1      37.327 -21.397 -71.575  0.00  0.00    -0.091 C 
HETATM    8  C   UNK N   1      38.147 -20.264 -71.013  0.00  0.00     0.042 C 
HETATM    9  C   UNK N   1      36.081 -21.790 -70.816  0.00  0.00     0.042 C 
ENDBRANCH   5   6
ENDBRANCH   4   5
ENDBRANCH   1   4
BRANCH   3  10
HETATM   10  C   UNK N   1      38.853 -27.227 -73.851  0.00  0.00     0.165 C 
HETATM   11  O   UNK N   1      39.837 -27.454 -73.169  0.00  0.00    -0.647 OA
BRANCH  10  12
HETATM   12  O   UNK N   1      38.346 -28.204 -74.635  0.00  0.00    -0.773 OA
HETATM   13  H   UNK N   1      38.626 -28.302 -75.556  0.00  0.00     0.167 HD
ENDBRANCH  10  12
ENDBRANCH   3  10
TORSDOF 5
ENDMDL
MODEL 4
REMARK VINA RESULT:      -5.9      3.399      5.593
REMARK  5 active torsions:
REMARK  status: ('A' for Active; 'I' for Inactive)
REMARK    1  A    between atoms: O_1  and  C_12 
REMARK    2  A    between atoms: C_3  and  C_4 
REMARK    3  A    between atoms: C_3  and  C_5 
REMARK    4  A    between atoms: C_4  and  C_6 
REMARK    5  A    between atoms: C_9  and  C_12 
ROOT
HETATM    1  C   UNK N   1      31.485 -18.267 -73.890  0.00  0.00    -0.077 C 
HETATM    2  C   UNK N   1      29.978 -18.367 -73.845  0.00  0.00     0.043 C 
HETATM    3  C   UNK N   1      32.157 -18.196 -75.075  0.00  0.00     0.083 C 
ENDROOT
BRANCH   1   4
HETATM    4  C   UNK N   1      32.211 -18.259 -72.543  0.00  0.00     0.038 C 
BRANCH   4   5
HETATM    5  C   UNK N   1      32.220 -19.585 -71.759  0.00  0.00     0.031 C 
BRANCH   5   6
HETATM    6  C   UNK N   1      33.609 -19.955 -71.297  0.00  0.00    -0.024 C 
HETATM    7  C   UNK N   1      34.504 -20.674 -72.019  0.00  0.00    -0.091 C 
HETATM    8  C   UNK N   1      35.871 -20.945 -71.442  0.00  0.00     0.042 C 
HETATM    9  C   UNK N   1      34.222 -21.204 -73.405  0.00  0.00     0.042 C 
ENDBRANCH   5   6
ENDBRANCH   4   5
ENDBRANCH   1   4
BRANCH   3  10
HETATM   10  C   UNK N   1      31.537 -18.214 -76.429  0.00  0.00     0.165 C 
HETATM   11  O   UNK N   1      31.641 -19.176 -77.171  0.00  0.00    -0.647 OA
BRANCH  10  12
HETATM   12  O   UNK N   1      30.854 -17.124 -76.842  0.00  0.00    -0.773 OA
HETATM   13  H   UNK N   1      30.413 -17.107 -77.704  0.00  0.00     0.167 HD
ENDBRANCH  10  12
ENDBRANCH   3  10
TORSDOF 5
ENDMDL
MODEL 5
REMARK VINA RESULT:      -5.8      3.585      6.179
REMARK  5 active torsions:
REMARK  status: ('A' for Active; 'I' for Inactive)
REMARK    1  A    between atoms: O_1  and  C_12 
REMARK    2  A    between atoms: C_3  and  C_4 
REMARK    3  A    between atoms: C_3  and  C_5 
REMARK    4  A    between atoms: C_4  and  C_6 
REMARK    5  A    between atoms: C_9  and  C_12 
ROOT
HETATM    1  C   UNK N   1      32.551 -19.311 -73.015  0.00  0.00    -0.077 C 
HETATM    2  C   UNK N   1      32.080 -19.141 -71.589  0.00  0.00     0.043 C 
HETATM    3  C   UNK N   1      31.843 -18.797 -74.063  0.00  0.00     0.083 C 
ENDROOT
BRANCH   1   4
HETATM    4  C   UNK N   1      33.850 -20.091 -73.219  0.00  0.00     0.038 C 
BRANCH   4   5
HETATM    5  C   UNK N   1      34.352 -20.916 -72.018  0.00  0.00     0.031 C 
BRANCH   5   6
HETATM    6  C   UNK N   1      35.684 -20.416 -71.511  0.00  0.00    -0.024 C 
HETATM    7  C   UNK N   1      36.856 -21.091 -71.604  0.00  0.00    -0.091 C 
HETATM    8  C   UNK N   1      38.118 -20.455 -71.078  0.00  0.00     0.042 C 
HETATM    9  C   UNK N   1      36.984 -22.454 -72.242  0.00  0.00     0.042 C 
ENDBRANCH   5   6
ENDBRANCH   4   5
ENDBRANCH   1   4
BRANCH   3  10
HETATM   10  C   UNK N   1      30.564 -18.041 -73.961  0.00  0.00     0.165 C 
HETATM   11  O   UNK N   1      30.497 -16.852 -74.221  0.00  0.00    -0.647 OA
BRANCH  10  12
HETATM   12  O   UNK N   1      29.455 -18.698 -73.555  0.00  0.00    -0.773 OA
HETATM   13  H   UNK N   1      28.855 -18.309 -72.903  0.00  0.00     0.167 HD
ENDBRANCH  10  12
ENDBRANCH   3  10
TORSDOF 5
ENDMDL
MODEL 6
REMARK VINA RESULT:      -5.6      4.271      6.498
REMARK  5 active torsions:
REMARK  status: ('A' for Active; 'I' for Inactive)
REMARK    1  A    between atoms: O_1  and  C_12 
REMARK    2  A    between atoms: C_3  and  C_4 
REMARK    3  A    between atoms: C_3  and  C_5 
REMARK    4  A    between atoms: C_4  and  C_6 
REMARK    5  A    between atoms: C_9  and  C_12 
ROOT
HETATM    1  C   UNK N   1      30.687 -17.855 -74.980  0.00  0.00    -0.077 C 
HETATM    2  C   UNK N   1      29.212 -17.882 -74.649  0.00  0.00     0.043 C 
HETATM    3  C   UNK N   1      31.125 -17.858 -76.273  0.00  0.00     0.083 C 
ENDROOT
BRANCH   1   4
HETATM    4  C   UNK N   1      31.655 -17.835 -73.796  0.00  0.00     0.038 C 
BRANCH   4   5
HETATM    5  C   UNK N   1      31.398 -18.867 -72.681  0.00  0.00     0.031 C 
BRANCH   5   6
HETATM    6  C   UNK N   1      32.611 -19.729 -72.425  0.00  0.00    -0.024 C 
HETATM    7  C   UNK N   1      33.393 -19.666 -71.319  0.00  0.00    -0.091 C 
HETATM    8  C   UNK N   1      34.560 -20.611 -71.184  0.00  0.00     0.042 C 
HETATM    9  C   UNK N   1      33.145 -18.708 -70.177  0.00  0.00     0.042 C 
ENDBRANCH   5   6
ENDBRANCH   4   5
ENDBRANCH   1   4
BRANCH   3  10
HETATM   10  C   UNK N   1      30.260 -17.894 -77.484  0.00  0.00     0.165 C 
HETATM   11  O   UNK N   1      30.023 -16.891 -78.136  0.00  0.00    -0.647 OA
BRANCH  10  12
HETATM   12  O   UNK N   1      29.715 -19.073 -77.855  0.00  0.00    -0.773 OA
HETATM   13  H   UNK N   1      29.042 -19.117 -78.550  0.00  0.00     0.167 HD
ENDBRANCH  10  12
ENDBRANCH   3  10
TORSDOF 5
ENDMDL
MODEL 7
REMARK VINA RESULT:      -5.6      2.846      5.471
REMARK  5 active torsions:
REMARK  status: ('A' for Active; 'I' for Inactive)
REMARK    1  A    between atoms: O_1  and  C_12 
REMARK    2  A    between atoms: C_3  and  C_4 
REMARK    3  A    between atoms: C_3  and  C_5 
REMARK    4  A    between atoms: C_4  and  C_6 
REMARK    5  A    between atoms: C_9  and  C_12 
ROOT
HETATM    1  C   UNK N   1      33.101 -19.585 -73.958  0.00  0.00    -0.077 C 
HETATM    2  C   UNK N   1      32.030 -18.539 -74.165  0.00  0.00     0.043 C 
HETATM    3  C   UNK N   1      33.806 -20.096 -75.009  0.00  0.00     0.083 C 
ENDROOT
BRANCH   1   4
HETATM    4  C   UNK N   1      33.343 -20.043 -72.519  0.00  0.00     0.038 C 
BRANCH   4   5
HETATM    5  C   UNK N   1      34.424 -21.121 -72.314  0.00  0.00     0.031 C 
BRANCH   5   6
HETATM    6  C   UNK N   1      35.679 -20.548 -71.700  0.00  0.00    -0.024 C 
HETATM    7  C   UNK N   1      36.896 -21.146 -71.715  0.00  0.00    -0.091 C 
HETATM    8  C   UNK N   1      38.072 -20.442 -71.087  0.00  0.00     0.042 C 
HETATM    9  C   UNK N   1      37.158 -22.486 -72.362  0.00  0.00     0.042 C 
ENDBRANCH   5   6
ENDBRANCH   4   5
ENDBRANCH   1   4
BRANCH   3  10
HETATM   10  C   UNK N   1      33.628 -19.723 -76.440  0.00  0.00     0.165 C 
HETATM   11  O   UNK N   1      34.209 -18.773 -76.934  0.00  0.00    -0.647 OA
BRANCH  10  12
HETATM   12  O   UNK N   1      32.786 -20.458 -77.199  0.00  0.00    -0.773 OA
HETATM   13  H   UNK N   1      32.171 -20.035 -77.816  0.00  0.00     0.167 HD
ENDBRANCH  10  12
ENDBRANCH   3  10
TORSDOF 5
ENDMDL
MODEL 8
REMARK VINA RESULT:      -5.5      1.503      2.152
REMARK  5 active torsions:
REMARK  status: ('A' for Active; 'I' for Inactive)
REMARK    1  A    between atoms: O_1  and  C_12 
REMARK    2  A    between atoms: C_3  and  C_4 
REMARK    3  A    between atoms: C_3  and  C_5 
REMARK    4  A    between atoms: C_4  and  C_6 
REMARK    5  A    between atoms: C_9  and  C_12 
ROOT
HETATM    1  C   UNK N   1      34.215 -20.739 -72.238  0.00  0.00    -0.077 C 
HETATM    2  C   UNK N   1      35.624 -20.547 -71.724  0.00  0.00     0.043 C 
HETATM    3  C   UNK N   1      33.975 -21.302 -73.457  0.00  0.00     0.083 C 
ENDROOT
BRANCH   1   4
HETATM    4  C   UNK N   1      33.083 -20.262 -71.326  0.00  0.00     0.038 C 
BRANCH   4   5
HETATM    5  C   UNK N   1      32.600 -18.813 -71.529  0.00  0.00     0.031 C 
BRANCH   5   6
HETATM    6  C   UNK N   1      31.201 -18.761 -72.094  0.00  0.00    -0.024 C 
HETATM    7  C   UNK N   1      30.891 -18.472 -73.382  0.00  0.00    -0.091 C 
HETATM    8  C   UNK N   1      29.447 -18.485 -73.815  0.00  0.00     0.042 C 
HETATM    9  C   UNK N   1      31.926 -18.162 -74.438  0.00  0.00     0.042 C 
ENDBRANCH   5   6
ENDBRANCH   4   5
ENDBRANCH   1   4
BRANCH   3  10
HETATM   10  C   UNK N   1      35.010 -21.777 -74.416  0.00  0.00     0.165 C 
HETATM   11  O   UNK N   1      35.286 -21.155 -75.427  0.00  0.00    -0.647 OA
BRANCH  10  12
HETATM   12  O   UNK N   1      35.647 -22.940 -74.155  0.00  0.00    -0.773 OA
HETATM   13  H   UNK N   1      35.604 -23.348 -73.278  0.00  0.00     0.167 HD
ENDBRANCH  10  12
ENDBRANCH   3  10
TORSDOF 5
ENDMDL
MODEL 9
REMARK VINA RESULT:      -5.5      3.262      5.242
REMARK  5 active torsions:
REMARK  status: ('A' for Active; 'I' for Inactive)
REMARK    1  A    between atoms: O_1  and  C_12 
REMARK    2  A    between atoms: C_3  and  C_4 
REMARK    3  A    between atoms: C_3  and  C_5 
REMARK    4  A    between atoms: C_4  and  C_6 
REMARK    5  A    between atoms: C_9  and  C_12 
ROOT
HETATM    1  C   UNK N   1      30.224 -18.340 -73.671  0.00  0.00    -0.077 C 
HETATM    2  C   UNK N   1      29.339 -18.853 -72.559  0.00  0.00     0.043 C 
HETATM    3  C   UNK N   1      31.585 -18.378 -73.571  0.00  0.00     0.083 C 
ENDROOT
BRANCH   1   4
HETATM    4  C   UNK N   1      29.517 -17.771 -74.902  0.00  0.00     0.038 C 
BRANCH   4   5
HETATM    5  C   UNK N   1      30.326 -16.782 -75.764  0.00  0.00     0.031 C 
BRANCH   5   6
HETATM    6  C   UNK N   1      30.466 -17.263 -77.188  0.00  0.00    -0.024 C 
HETATM    7  C   UNK N   1      31.612 -17.729 -77.744  0.00  0.00    -0.091 C 
HETATM    8  C   UNK N   1      31.599 -18.205 -79.174  0.00  0.00     0.042 C 
HETATM    9  C   UNK N   1      32.920 -17.832 -76.994  0.00  0.00     0.042 C 
ENDBRANCH   5   6
ENDBRANCH   4   5
ENDBRANCH   1   4
BRANCH   3  10
HETATM   10  C   UNK N   1      32.357 -18.897 -72.408  0.00  0.00     0.165 C 
HETATM   11  O   UNK N   1      32.705 -20.063 -72.335  0.00  0.00    -0.647 OA
BRANCH  10  12
HETATM   12  O   UNK N   1      32.664 -18.046 -71.404  0.00  0.00    -0.773 OA
HETATM   13  H   UNK N   1      32.039 -17.364 -71.118  0.00  0.00     0.167 HD
ENDBRANCH  10  12
ENDBRANCH   3  10
TORSDOF 5
ENDMDL
