MODEL 1
REMARK VINA RESULT:      -7.2      0.000      0.000
REMARK  1 active torsions:
REMARK  status: ('A' for Active; 'I' for Inactive)
REMARK    1  A    between atoms: C_5  and  C_11 
ROOT
HETATM    1  C   UNK N   1      32.820 -18.784 -76.654  0.00  0.00    -0.035 C 
HETATM    2  C   UNK N   1      31.465 -18.113 -76.356  0.00  0.00     0.007 C 
HETATM    3  C   UNK N   1      32.143 -19.708 -77.714  0.00  0.00     0.006 C 
HETATM    4  C   UNK N   1      30.834 -18.916 -77.500  0.00  0.00     0.024 C 
HETATM    5  C   UNK N   1      31.095 -18.564 -74.927  0.00  0.00    -0.006 C 
HETATM    6  C   UNK N   1      33.214 -19.494 -75.338  0.00  0.00     0.010 C 
HETATM    7  C   UNK N   1      32.473 -18.699 -74.280  0.00  0.00     0.006 C 
HETATM    8  C   UNK N   1      32.515 -19.528 -79.204  0.00  0.00     0.033 C 
HETATM    9  C   UNK N   1      30.713 -18.115 -78.757  0.00  0.00    -0.083 C 
HETATM   10  C   UNK N   1      33.882 -17.774 -77.134  0.00  0.00     0.016 C 
HETATM   11  C   UNK N   1      31.615 -18.443 -79.665  0.00  0.00    -0.023 C 
HETATM   12  C   UNK N   1      29.642 -17.089 -78.977  0.00  0.00     0.043 C 
ENDROOT
BRANCH   5  13
HETATM   13  C   UNK N   1      30.138 -17.575 -74.208  0.00  0.00    -0.018 C 
HETATM   14  C   UNK N   1      29.945 -16.291 -75.030  0.00  0.00     0.010 C 
HETATM   15  C   UNK N   1      28.769 -18.212 -73.931  0.00  0.00     0.010 C 
ENDBRANCH   5  13
TORSDOF 1
ENDMDL
MODEL 2
REMARK VINA RESULT:      -7.1      1.242      3.254
REMARK  1 active torsions:
REMARK  status: ('A' for Active; 'I' for Inactive)
REMARK    1  A    between atoms: C_5  and  C_11 
ROOT
HETATM    1  C   UNK N   1      30.347 -17.652 -76.290  0.00  0.00    -0.035 C 
HETATM    2  C   UNK N   1      31.431 -18.556 -75.673  0.00  0.00     0.007 C 
HETATM    3  C   UNK N   1      31.404 -17.015 -77.246  0.00  0.00     0.006 C 
HETATM    4  C   UNK N   1      32.432 -18.037 -76.712  0.00  0.00     0.024 C 
HETATM    5  C   UNK N   1      31.619 -18.037 -74.232  0.00  0.00    -0.006 C 
HETATM    6  C   UNK N   1      29.885 -16.733 -75.136  0.00  0.00     0.010 C 
HETATM    7  C   UNK N   1      30.212 -17.543 -73.895  0.00  0.00     0.006 C 
HETATM    8  C   UNK N   1      31.288 -17.278 -78.765  0.00  0.00     0.033 C 
HETATM    9  C   UNK N   1      32.600 -18.980 -77.860  0.00  0.00    -0.083 C 
HETATM   10  C   UNK N   1      29.191 -18.462 -76.913  0.00  0.00     0.016 C 
HETATM   11  C   UNK N   1      31.985 -18.573 -78.956  0.00  0.00    -0.023 C 
HETATM   12  C   UNK N   1      33.430 -20.227 -77.783  0.00  0.00     0.043 C 
ENDROOT
BRANCH   5  13
HETATM   13  C   UNK N   1      32.171 -19.118 -73.265  0.00  0.00    -0.018 C 
HETATM   14  C   UNK N   1      33.405 -19.817 -73.858  0.00  0.00     0.010 C 
HETATM   15  C   UNK N   1      32.533 -18.523 -71.896  0.00  0.00     0.010 C 
ENDBRANCH   5  13
TORSDOF 1
ENDMDL
MODEL 3
REMARK VINA RESULT:      -7.0      1.284      3.220
REMARK  1 active torsions:
REMARK  status: ('A' for Active; 'I' for Inactive)
REMARK    1  A    between atoms: C_5  and  C_11 
ROOT
HETATM    1  C   UNK N   1      31.216 -18.325 -77.424  0.00  0.00    -0.035 C 
HETATM    2  C   UNK N   1      31.561 -18.628 -75.953  0.00  0.00     0.007 C 
HETATM    3  C   UNK N   1      32.726 -18.100 -77.745  0.00  0.00     0.006 C 
HETATM    4  C   UNK N   1      33.051 -18.554 -76.304  0.00  0.00     0.024 C 
HETATM    5  C   UNK N   1      30.993 -17.439 -75.150  0.00  0.00    -0.006 C 
HETATM    6  C   UNK N   1      30.367 -17.033 -77.379  0.00  0.00     0.010 C 
HETATM    7  C   UNK N   1      29.770 -17.059 -75.984  0.00  0.00     0.006 C 
HETATM    8  C   UNK N   1      33.445 -19.098 -78.681  0.00  0.00     0.033 C 
HETATM    9  C   UNK N   1      33.657 -19.906 -76.503  0.00  0.00    -0.083 C 
HETATM   10  C   UNK N   1      30.489 -19.499 -78.110  0.00  0.00     0.016 C 
HETATM   11  C   UNK N   1      33.864 -20.195 -77.775  0.00  0.00    -0.023 C 
HETATM   12  C   UNK N   1      34.039 -20.809 -75.368  0.00  0.00     0.043 C 
ENDROOT
BRANCH   5  13
HETATM   13  C   UNK N   1      30.679 -17.799 -73.673  0.00  0.00    -0.018 C 
HETATM   14  C   UNK N   1      29.323 -18.511 -73.550  0.00  0.00     0.010 C 
HETATM   15  C   UNK N   1      31.775 -18.682 -73.059  0.00  0.00     0.010 C 
ENDBRANCH   5  13
TORSDOF 1
ENDMDL
MODEL 4
REMARK VINA RESULT:      -6.6      1.575      4.269
REMARK  1 active torsions:
REMARK  status: ('A' for Active; 'I' for Inactive)
REMARK    1  A    between atoms: C_5  and  C_11 
ROOT
HETATM    1  C   UNK N   1      31.562 -18.803 -78.492  0.00  0.00    -0.035 C 
HETATM    2  C   UNK N   1      30.122 -18.458 -78.070  0.00  0.00     0.007 C 
HETATM    3  C   UNK N   1      32.113 -17.648 -77.599  0.00  0.00     0.006 C 
HETATM    4  C   UNK N   1      30.675 -17.424 -77.082  0.00  0.00     0.024 C 
HETATM    5  C   UNK N   1      29.452 -17.891 -79.340  0.00  0.00    -0.006 C 
HETATM    6  C   UNK N   1      31.613 -18.524 -80.012  0.00  0.00     0.010 C 
HETATM    7  C   UNK N   1      30.166 -18.674 -80.441  0.00  0.00     0.006 C 
HETATM    8  C   UNK N   1      32.964 -18.006 -76.359  0.00  0.00     0.033 C 
HETATM    9  C   UNK N   1      30.732 -17.949 -75.683  0.00  0.00    -0.083 C 
HETATM   10  C   UNK N   1      31.947 -20.252 -78.133  0.00  0.00     0.016 C 
HETATM   11  C   UNK N   1      31.957 -18.262 -75.301  0.00  0.00    -0.023 C 
HETATM   12  C   UNK N   1      29.528 -18.051 -74.795  0.00  0.00     0.043 C 
ENDROOT
BRANCH   5  13
HETATM   13  C   UNK N   1      27.907 -18.049 -79.334  0.00  0.00    -0.018 C 
HETATM   14  C   UNK N   1      27.381 -18.413 -80.732  0.00  0.00     0.010 C 
HETATM   15  C   UNK N   1      27.450 -19.113 -78.326  0.00  0.00     0.010 C 
ENDBRANCH   5  13
TORSDOF 1
ENDMDL
MODEL 5
REMARK VINA RESULT:      -6.1      7.406      9.782
REMARK  1 active torsions:
REMARK  status: ('A' for Active; 'I' for Inactive)
REMARK    1  A    between atoms: C_5  and  C_11 
ROOT
HETATM    1  C   UNK N   1      36.916 -21.321 -81.708  0.00  0.00    -0.035 C 
HETATM    2  C   UNK N   1      36.598 -22.303 -82.852  0.00  0.00     0.007 C 
HETATM    3  C   UNK N   1      36.746 -22.465 -80.661  0.00  0.00     0.006 C 
HETATM    4  C   UNK N   1      36.579 -23.453 -81.837  0.00  0.00     0.024 C 
HETATM    5  C   UNK N   1      35.225 -21.859 -83.398  0.00  0.00    -0.006 C 
HETATM    6  C   UNK N   1      35.763 -20.291 -81.731  0.00  0.00     0.010 C 
HETATM    7  C   UNK N   1      35.275 -20.348 -83.167  0.00  0.00     0.006 C 
HETATM    8  C   UNK N   1      37.987 -22.944 -79.873  0.00  0.00     0.033 C 
HETATM    9  C   UNK N   1      37.863 -24.219 -81.822  0.00  0.00    -0.083 C 
HETATM   10  C   UNK N   1      38.306 -20.671 -81.863  0.00  0.00     0.016 C 
HETATM   11  C   UNK N   1      38.615 -23.942 -80.772  0.00  0.00    -0.023 C 
HETATM   12  C   UNK N   1      38.224 -25.236 -82.864  0.00  0.00     0.043 C 
ENDROOT
BRANCH   5  13
HETATM   13  C   UNK N   1      34.994 -22.277 -84.875  0.00  0.00    -0.018 C 
HETATM   14  C   UNK N   1      34.317 -21.151 -85.673  0.00  0.00     0.010 C 
HETATM   15  C   UNK N   1      36.309 -22.669 -85.565  0.00  0.00     0.010 C 
ENDBRANCH   5  13
TORSDOF 1
ENDMDL
MODEL 6
REMARK VINA RESULT:      -6.0      1.688      2.483
REMARK  1 active torsions:
REMARK  status: ('A' for Active; 'I' for Inactive)
REMARK    1  A    between atoms: C_5  and  C_11 
ROOT
HETATM    1  C   UNK N   1      31.595 -18.669 -78.810  0.00  0.00    -0.035 C 
HETATM    2  C   UNK N   1      30.649 -18.468 -77.611  0.00  0.00     0.007 C 
HETATM    3  C   UNK N   1      30.964 -20.069 -79.088  0.00  0.00     0.006 C 
HETATM    4  C   UNK N   1      29.933 -19.774 -77.976  0.00  0.00     0.024 C 
HETATM    5  C   UNK N   1      31.557 -18.519 -76.364  0.00  0.00    -0.006 C 
HETATM    6  C   UNK N   1      33.014 -18.711 -78.198  0.00  0.00     0.010 C 
HETATM    7  C   UNK N   1      32.859 -17.930 -76.907  0.00  0.00     0.006 C 
HETATM    8  C   UNK N   1      30.149 -20.275 -80.386  0.00  0.00     0.033 C 
HETATM    9  C   UNK N   1      28.670 -19.535 -78.740  0.00  0.00    -0.083 C 
HETATM   10  C   UNK N   1      31.431 -17.568 -79.877  0.00  0.00     0.016 C 
HETATM   11  C   UNK N   1      28.790 -19.801 -80.029  0.00  0.00    -0.023 C 
HETATM   12  C   UNK N   1      27.390 -19.095 -78.094  0.00  0.00     0.043 C 
ENDROOT
BRANCH   5  13
HETATM   13  C   UNK N   1      30.963 -17.758 -75.148  0.00  0.00    -0.018 C 
HETATM   14  C   UNK N   1      29.445 -17.976 -75.044  0.00  0.00     0.010 C 
HETATM   15  C   UNK N   1      31.629 -18.185 -73.832  0.00  0.00     0.010 C 
ENDBRANCH   5  13
TORSDOF 1
ENDMDL
MODEL 7
REMARK VINA RESULT:      -5.9      7.802     10.980
REMARK  1 active torsions:
REMARK  status: ('A' for Active; 'I' for Inactive)
REMARK    1  A    between atoms: C_5  and  C_11 
ROOT
HETATM    1  C   UNK N   1      38.116 -24.098 -83.992  0.00  0.00    -0.035 C 
HETATM    2  C   UNK N   1      36.893 -23.184 -83.785  0.00  0.00     0.007 C 
HETATM    3  C   UNK N   1      38.998 -23.131 -83.141  0.00  0.00     0.006 C 
HETATM    4  C   UNK N   1      37.722 -22.318 -82.830  0.00  0.00     0.024 C 
HETATM    5  C   UNK N   1      36.603 -22.576 -85.173  0.00  0.00    -0.006 C 
HETATM    6  C   UNK N   1      38.396 -24.057 -85.512  0.00  0.00     0.010 C 
HETATM    7  C   UNK N   1      37.044 -23.705 -86.104  0.00  0.00     0.006 C 
HETATM    8  C   UNK N   1      39.538 -23.621 -81.778  0.00  0.00     0.033 C 
HETATM    9  C   UNK N   1      37.457 -22.640 -81.394  0.00  0.00    -0.083 C 
HETATM   10  C   UNK N   1      37.877 -25.527 -83.462  0.00  0.00     0.016 C 
HETATM   11  C   UNK N   1      38.428 -23.340 -80.835  0.00  0.00    -0.023 C 
HETATM   12  C   UNK N   1      36.239 -22.166 -80.658  0.00  0.00     0.043 C 
ENDROOT
BRANCH   5  13
HETATM   13  C   UNK N   1      35.124 -22.138 -85.347  0.00  0.00    -0.018 C 
HETATM   14  C   UNK N   1      34.789 -20.939 -84.445  0.00  0.00     0.010 C 
HETATM   15  C   UNK N   1      34.806 -21.781 -86.806  0.00  0.00     0.010 C 
ENDBRANCH   5  13
TORSDOF 1
ENDMDL
MODEL 8
REMARK VINA RESULT:      -5.8      7.485     10.422
REMARK  1 active torsions:
REMARK  status: ('A' for Active; 'I' for Inactive)
REMARK    1  A    between atoms: C_5  and  C_11 
ROOT
HETATM    1  C   UNK N   1      35.458 -21.459 -82.716  0.00  0.00    -0.035 C 
HETATM    2  C   UNK N   1      36.417 -22.266 -83.612  0.00  0.00     0.007 C 
HETATM    3  C   UNK N   1      35.284 -22.690 -81.773  0.00  0.00     0.006 C 
HETATM    4  C   UNK N   1      36.361 -23.420 -82.605  0.00  0.00     0.024 C 
HETATM    5  C   UNK N   1      35.651 -22.482 -84.934  0.00  0.00    -0.006 C 
HETATM    6  C   UNK N   1      34.234 -21.154 -83.611  0.00  0.00     0.010 C 
HETATM    7  C   UNK N   1      34.808 -21.210 -85.014  0.00  0.00     0.006 C 
HETATM    8  C   UNK N   1      35.838 -22.608 -80.332  0.00  0.00     0.033 C 
HETATM    9  C   UNK N   1      37.544 -23.435 -81.690  0.00  0.00    -0.083 C 
HETATM   10  C   UNK N   1      36.118 -20.187 -82.146  0.00  0.00     0.016 C 
HETATM   11  C   UNK N   1      37.262 -22.997 -80.476  0.00  0.00    -0.023 C 
HETATM   12  C   UNK N   1      38.893 -23.948 -82.100  0.00  0.00     0.043 C 
ENDROOT
BRANCH   5  13
HETATM   13  C   UNK N   1      36.590 -22.710 -86.150  0.00  0.00    -0.018 C 
HETATM   14  C   UNK N   1      37.422 -23.991 -85.977  0.00  0.00     0.010 C 
HETATM   15  C   UNK N   1      35.805 -22.788 -87.466  0.00  0.00     0.010 C 
ENDBRANCH   5  13
TORSDOF 1
ENDMDL
MODEL 9
REMARK VINA RESULT:      -5.7      1.856      4.045
REMARK  1 active torsions:
REMARK  status: ('A' for Active; 'I' for Inactive)
REMARK    1  A    between atoms: C_5  and  C_11 
ROOT
HETATM    1  C   UNK N   1      29.845 -19.388 -79.832  0.00  0.00    -0.035 C 
HETATM    2  C   UNK N   1      31.157 -19.156 -79.059  0.00  0.00     0.007 C 
HETATM    3  C   UNK N   1      30.349 -18.469 -80.989  0.00  0.00     0.006 C 
HETATM    4  C   UNK N   1      31.708 -18.377 -80.259  0.00  0.00     0.024 C 
HETATM    5  C   UNK N   1      30.759 -18.313 -77.829  0.00  0.00    -0.006 C 
HETATM    6  C   UNK N   1      28.741 -18.764 -78.947  0.00  0.00     0.010 C 
HETATM    7  C   UNK N   1      29.342 -18.817 -77.555  0.00  0.00     0.006 C 
HETATM    8  C   UNK N   1      30.645 -19.102 -82.368  0.00  0.00     0.033 C 
HETATM    9  C   UNK N   1      32.608 -19.211 -81.114  0.00  0.00    -0.083 C 
HETATM   10  C   UNK N   1      29.600 -20.880 -80.137  0.00  0.00     0.016 C 
HETATM   11  C   UNK N   1      32.036 -19.599 -82.239  0.00  0.00    -0.023 C 
HETATM   12  C   UNK N   1      34.030 -19.521 -80.749  0.00  0.00     0.043 C 
ENDROOT
BRANCH   5  13
HETATM   13  C   UNK N   1      31.742 -18.474 -76.638  0.00  0.00    -0.018 C 
HETATM   14  C   UNK N   1      33.105 -17.838 -76.954  0.00  0.00     0.010 C 
HETATM   15  C   UNK N   1      31.178 -17.855 -75.351  0.00  0.00     0.010 C 
ENDBRANCH   5  13
TORSDOF 1
ENDMDL
