MODEL 1
REMARK VINA RESULT:      -7.3      0.000      0.000
REMARK  1 active torsions:
REMARK  status: ('A' for Active; 'I' for Inactive)
REMARK    1  A    between atoms: C_1  and  C_2 
ROOT
HETATM    1  C   UNK N   1      31.932 -18.357 -73.647  0.00  0.00     0.012 C 
HETATM    2  C   UNK N   1      30.441 -17.891 -73.573  0.00  0.00     0.013 C 
HETATM    3  C   UNK N   1      30.013 -16.847 -74.653  0.00  0.00     0.034 C 
HETATM    4  C   UNK N   1      32.215 -19.068 -74.957  0.00  0.00    -0.021 C 
HETATM    5  C   UNK N   1      30.004 -17.409 -76.069  0.00  0.00    -0.087 C 
HETATM    6  C   UNK N   1      32.907 -18.444 -75.919  0.00  0.00     0.002 C 
HETATM    7  C   UNK N   1      31.183 -17.480 -78.356  0.00  0.00     0.032 C 
HETATM    8  C   UNK N   1      30.874 -16.891 -76.986  0.00  0.00    -0.024 C 
HETATM    9  C   UNK N   1      32.663 -17.970 -78.423  0.00  0.00     0.041 C 
HETATM   10  C   UNK N   1      32.957 -18.964 -77.306  0.00  0.00    -0.068 C 
HETATM   11  C   UNK N   1      29.051 -18.557 -76.350  0.00  0.00     0.043 C 
HETATM   12  C   UNK N   1      33.193 -20.259 -77.567  0.00  0.00     0.019 C 
ENDROOT
BRANCH   1  13
HETATM   13  C   UNK N   1      32.347 -19.231 -72.426  0.00  0.00    -0.015 C 
HETATM   14  C   UNK N   1      33.490 -20.218 -72.733  0.00  0.00     0.010 C 
HETATM   15  C   UNK N   1      32.733 -18.347 -71.230  0.00  0.00     0.010 C 
ENDBRANCH   1  13
TORSDOF 1
ENDMDL
MODEL 2
REMARK VINA RESULT:      -6.8      1.156      3.388
REMARK  1 active torsions:
REMARK  status: ('A' for Active; 'I' for Inactive)
REMARK    1  A    between atoms: C_1  and  C_2 
ROOT
HETATM    1  C   UNK N   1      32.858 -19.691 -73.555  0.00  0.00     0.012 C 
HETATM    2  C   UNK N   1      34.048 -19.988 -74.526  0.00  0.00     0.013 C 
HETATM    3  C   UNK N   1      33.641 -20.375 -75.983  0.00  0.00     0.034 C 
HETATM    4  C   UNK N   1      32.057 -18.493 -74.028  0.00  0.00    -0.021 C 
HETATM    5  C   UNK N   1      32.999 -19.231 -76.757  0.00  0.00    -0.087 C 
HETATM    6  C   UNK N   1      30.860 -18.673 -74.602  0.00  0.00     0.002 C 
HETATM    7  C   UNK N   1      30.821 -18.240 -77.709  0.00  0.00     0.032 C 
HETATM    8  C   UNK N   1      31.698 -19.356 -77.156  0.00  0.00    -0.024 C 
HETATM    9  C   UNK N   1      29.649 -17.924 -76.729  0.00  0.00     0.041 C 
HETATM   10  C   UNK N   1      30.177 -17.585 -75.342  0.00  0.00    -0.068 C 
HETATM   11  C   UNK N   1      33.846 -17.993 -76.987  0.00  0.00     0.043 C 
HETATM   12  C   UNK N   1      30.078 -16.345 -74.839  0.00  0.00     0.019 C 
ENDROOT
BRANCH   1  13
HETATM   13  C   UNK N   1      33.320 -19.518 -72.077  0.00  0.00    -0.015 C 
HETATM   14  C   UNK N   1      32.237 -18.921 -71.158  0.00  0.00     0.010 C 
HETATM   15  C   UNK N   1      33.810 -20.855 -71.500  0.00  0.00     0.010 C 
ENDBRANCH   1  13
TORSDOF 1
ENDMDL
MODEL 3
REMARK VINA RESULT:      -6.7      9.584     12.548
REMARK  1 active torsions:
REMARK  status: ('A' for Active; 'I' for Inactive)
REMARK    1  A    between atoms: C_1  and  C_2 
ROOT
HETATM    1  C   UNK N   1      38.665 -25.881 -76.467  0.00  0.00     0.012 C 
HETATM    2  C   UNK N   1      38.906 -24.856 -75.310  0.00  0.00     0.013 C 
HETATM    3  C   UNK N   1      39.031 -25.478 -73.883  0.00  0.00     0.034 C 
HETATM    4  C   UNK N   1      39.836 -26.836 -76.600  0.00  0.00    -0.021 C 
HETATM    5  C   UNK N   1      40.283 -26.325 -73.699  0.00  0.00    -0.087 C 
HETATM    6  C   UNK N   1      39.721 -28.097 -76.162  0.00  0.00     0.002 C 
HETATM    7  C   UNK N   1      41.256 -28.700 -73.493  0.00  0.00     0.032 C 
HETATM    8  C   UNK N   1      40.142 -27.662 -73.456  0.00  0.00    -0.024 C 
HETATM    9  C   UNK N   1      41.032 -29.707 -74.664  0.00  0.00     0.041 C 
HETATM   10  C   UNK N   1      40.904 -28.975 -75.993  0.00  0.00    -0.068 C 
HETATM   11  C   UNK N   1      41.620 -25.623 -73.852  0.00  0.00     0.043 C 
HETATM   12  C   UNK N   1      41.848 -29.077 -76.941  0.00  0.00     0.019 C 
ENDROOT
BRANCH   1  13
HETATM   13  C   UNK N   1      38.343 -25.186 -77.824  0.00  0.00    -0.015 C 
HETATM   14  C   UNK N   1      37.591 -23.851 -77.671  0.00  0.00     0.010 C 
HETATM   15  C   UNK N   1      39.626 -24.967 -78.641  0.00  0.00     0.010 C 
ENDBRANCH   1  13
TORSDOF 1
ENDMDL
MODEL 4
REMARK VINA RESULT:      -6.7      1.655      2.949
REMARK  1 active torsions:
REMARK  status: ('A' for Active; 'I' for Inactive)
REMARK    1  A    between atoms: C_1  and  C_2 
ROOT
HETATM    1  C   UNK N   1      32.020 -17.860 -76.380  0.00  0.00     0.012 C 
HETATM    2  C   UNK N   1      30.547 -17.442 -76.698  0.00  0.00     0.013 C 
HETATM    3  C   UNK N   1      30.299 -16.919 -78.149  0.00  0.00     0.034 C 
HETATM    4  C   UNK N   1      32.456 -19.021 -77.253  0.00  0.00    -0.021 C 
HETATM    5  C   UNK N   1      30.464 -17.993 -79.216  0.00  0.00    -0.087 C 
HETATM    6  C   UNK N   1      33.289 -18.809 -78.280  0.00  0.00     0.002 C 
HETATM    7  C   UNK N   1      31.938 -18.929 -81.108  0.00  0.00     0.032 C 
HETATM    8  C   UNK N   1      31.464 -17.857 -80.137  0.00  0.00    -0.024 C 
HETATM    9  C   UNK N   1      33.399 -19.367 -80.776  0.00  0.00     0.041 C 
HETATM   10  C   UNK N   1      33.510 -19.831 -79.330  0.00  0.00    -0.068 C 
HETATM   11  C   UNK N   1      29.525 -19.184 -79.148  0.00  0.00     0.043 C 
HETATM   12  C   UNK N   1      33.741 -21.118 -79.024  0.00  0.00     0.019 C 
ENDROOT
BRANCH   1  13
HETATM   13  C   UNK N   1      32.241 -18.171 -74.869  0.00  0.00    -0.015 C 
HETATM   14  C   UNK N   1      30.934 -18.255 -74.058  0.00  0.00     0.010 C 
HETATM   15  C   UNK N   1      33.044 -19.468 -74.693  0.00  0.00     0.010 C 
ENDBRANCH   1  13
TORSDOF 1
ENDMDL
MODEL 5
REMARK VINA RESULT:      -6.6      1.816      3.840
REMARK  1 active torsions:
REMARK  status: ('A' for Active; 'I' for Inactive)
REMARK    1  A    between atoms: C_1  and  C_2 
ROOT
HETATM    1  C   UNK N   1      30.579 -18.577 -75.671  0.00  0.00     0.012 C 
HETATM    2  C   UNK N   1      31.963 -18.382 -74.968  0.00  0.00     0.013 C 
HETATM    3  C   UNK N   1      33.077 -19.390 -75.393  0.00  0.00     0.034 C 
HETATM    4  C   UNK N   1      30.696 -18.362 -77.168  0.00  0.00    -0.021 C 
HETATM    5  C   UNK N   1      33.531 -19.217 -76.837  0.00  0.00    -0.087 C 
HETATM    6  C   UNK N   1      30.678 -19.415 -77.997  0.00  0.00     0.002 C 
HETATM    7  C   UNK N   1      33.465 -20.153 -79.235  0.00  0.00     0.032 C 
HETATM    8  C   UNK N   1      33.312 -20.235 -77.721  0.00  0.00    -0.024 C 
HETATM    9  C   UNK N   1      32.081 -20.321 -79.937  0.00  0.00     0.041 C 
HETATM   10  C   UNK N   1      31.082 -19.296 -79.418  0.00  0.00    -0.068 C 
HETATM   11  C   UNK N   1      34.157 -17.885 -77.208  0.00  0.00     0.043 C 
HETATM   12  C   UNK N   1      30.633 -18.299 -80.198  0.00  0.00     0.019 C 
ENDROOT
BRANCH   1  13
HETATM   13  C   UNK N   1      29.463 -17.682 -75.055  0.00  0.00    -0.015 C 
HETATM   14  C   UNK N   1      28.831 -18.272 -73.780  0.00  0.00     0.010 C 
HETATM   15  C   UNK N   1      29.997 -16.271 -74.762  0.00  0.00     0.010 C 
ENDBRANCH   1  13
TORSDOF 1
ENDMDL
MODEL 6
REMARK VINA RESULT:      -6.5      9.591     12.106
REMARK  1 active torsions:
REMARK  status: ('A' for Active; 'I' for Inactive)
REMARK    1  A    between atoms: C_1  and  C_2 
ROOT
HETATM    1  C   UNK N   1      41.306 -27.610 -75.077  0.00  0.00     0.012 C 
HETATM    2  C   UNK N   1      40.573 -28.190 -73.823  0.00  0.00     0.013 C 
HETATM    3  C   UNK N   1      39.816 -27.141 -72.948  0.00  0.00     0.034 C 
HETATM    4  C   UNK N   1      40.318 -26.989 -76.046  0.00  0.00    -0.021 C 
HETATM    5  C   UNK N   1      38.611 -26.524 -73.648  0.00  0.00    -0.087 C 
HETATM    6  C   UNK N   1      40.218 -25.656 -76.136  0.00  0.00     0.002 C 
HETATM    7  C   UNK N   1      37.642 -24.445 -74.817  0.00  0.00     0.032 C 
HETATM    8  C   UNK N   1      38.623 -25.185 -73.917  0.00  0.00    -0.024 C 
HETATM    9  C   UNK N   1      38.367 -23.888 -76.082  0.00  0.00     0.041 C 
HETATM   10  C   UNK N   1      39.083 -25.004 -76.832  0.00  0.00    -0.068 C 
HETATM   11  C   UNK N   1      37.490 -27.464 -74.049  0.00  0.00     0.043 C 
HETATM   12  C   UNK N   1      38.667 -25.413 -78.041  0.00  0.00     0.019 C 
ENDROOT
BRANCH   1  13
HETATM   13  C   UNK N   1      42.207 -28.665 -75.785  0.00  0.00    -0.015 C 
HETATM   14  C   UNK N   1      43.016 -29.541 -74.808  0.00  0.00     0.010 C 
HETATM   15  C   UNK N   1      41.372 -29.560 -76.713  0.00  0.00     0.010 C 
ENDBRANCH   1  13
TORSDOF 1
ENDMDL
MODEL 7
REMARK VINA RESULT:      -6.2      1.839      4.032
REMARK  1 active torsions:
REMARK  status: ('A' for Active; 'I' for Inactive)
REMARK    1  A    between atoms: C_1  and  C_2 
ROOT
HETATM    1  C   UNK N   1      31.535 -18.702 -75.743  0.00  0.00     0.012 C 
HETATM    2  C   UNK N   1      33.021 -19.102 -76.021  0.00  0.00     0.013 C 
HETATM    3  C   UNK N   1      33.217 -20.331 -76.964  0.00  0.00     0.034 C 
HETATM    4  C   UNK N   1      30.837 -18.279 -77.022  0.00  0.00    -0.021 C 
HETATM    5  C   UNK N   1      32.782 -20.068 -78.400  0.00  0.00    -0.087 C 
HETATM    6  C   UNK N   1      29.959 -19.103 -77.608  0.00  0.00     0.002 C 
HETATM    7  C   UNK N   1      31.009 -20.493 -80.218  0.00  0.00     0.032 C 
HETATM    8  C   UNK N   1      31.738 -20.784 -78.913  0.00  0.00    -0.024 C 
HETATM    9  C   UNK N   1      29.533 -20.068 -79.942  0.00  0.00     0.041 C 
HETATM   10  C   UNK N   1      29.480 -18.877 -78.993  0.00  0.00    -0.068 C 
HETATM   11  C   UNK N   1      33.517 -18.975 -79.154  0.00  0.00     0.043 C 
HETATM   12  C   UNK N   1      29.073 -17.668 -79.410  0.00  0.00     0.019 C 
ENDROOT
BRANCH   1  13
HETATM   13  C   UNK N   1      31.405 -17.610 -74.639  0.00  0.00    -0.015 C 
HETATM   14  C   UNK N   1      30.014 -16.950 -74.584  0.00  0.00     0.010 C 
HETATM   15  C   UNK N   1      31.759 -18.187 -73.260  0.00  0.00     0.010 C 
ENDBRANCH   1  13
TORSDOF 1
ENDMDL
MODEL 8
REMARK VINA RESULT:      -6.2      2.790      5.184
REMARK  1 active torsions:
REMARK  status: ('A' for Active; 'I' for Inactive)
REMARK    1  A    between atoms: C_1  and  C_2 
ROOT
HETATM    1  C   UNK N   1      29.382 -20.486 -78.816  0.00  0.00     0.012 C 
HETATM    2  C   UNK N   1      28.522 -19.255 -78.378  0.00  0.00     0.013 C 
HETATM    3  C   UNK N   1      29.043 -18.490 -77.120  0.00  0.00     0.034 C 
HETATM    4  C   UNK N   1      30.780 -20.057 -79.219  0.00  0.00    -0.021 C 
HETATM    5  C   UNK N   1      30.365 -17.769 -77.354  0.00  0.00    -0.087 C 
HETATM    6  C   UNK N   1      31.812 -20.288 -78.398  0.00  0.00     0.002 C 
HETATM    7  C   UNK N   1      32.902 -17.745 -76.917  0.00  0.00     0.032 C 
HETATM    8  C   UNK N   1      31.464 -18.166 -76.647  0.00  0.00    -0.024 C 
HETATM    9  C   UNK N   1      33.756 -18.967 -77.381  0.00  0.00     0.041 C 
HETATM   10  C   UNK N   1      33.129 -19.637 -78.597  0.00  0.00    -0.068 C 
HETATM   11  C   UNK N   1      30.380 -16.680 -78.412  0.00  0.00     0.043 C 
HETATM   12  C   UNK N   1      33.717 -19.588 -79.802  0.00  0.00     0.019 C 
ENDROOT
BRANCH   1  13
HETATM   13  C   UNK N   1      28.700 -21.323 -79.939  0.00  0.00    -0.015 C 
HETATM   14  C   UNK N   1      29.697 -21.957 -80.928  0.00  0.00     0.010 C 
HETATM   15  C   UNK N   1      27.804 -22.416 -79.335  0.00  0.00     0.010 C 
ENDBRANCH   1  13
TORSDOF 1
ENDMDL
MODEL 9
REMARK VINA RESULT:      -5.9      2.512      5.582
REMARK  1 active torsions:
REMARK  status: ('A' for Active; 'I' for Inactive)
REMARK    1  A    between atoms: C_1  and  C_2 
ROOT
HETATM    1  C   UNK N   1      31.197 -20.084 -79.936  0.00  0.00     0.012 C 
HETATM    2  C   UNK N   1      29.909 -19.250 -80.238  0.00  0.00     0.013 C 
HETATM    3  C   UNK N   1      29.025 -18.913 -78.995  0.00  0.00     0.034 C 
HETATM    4  C   UNK N   1      32.141 -19.317 -79.029  0.00  0.00    -0.021 C 
HETATM    5  C   UNK N   1      29.693 -17.952 -78.020  0.00  0.00    -0.087 C 
HETATM    6  C   UNK N   1      32.250 -19.656 -77.738  0.00  0.00     0.002 C 
HETATM    7  C   UNK N   1      30.861 -17.673 -75.743  0.00  0.00     0.032 C 
HETATM    8  C   UNK N   1      29.985 -18.392 -76.760  0.00  0.00    -0.024 C 
HETATM    9  C   UNK N   1      32.160 -18.491 -75.461  0.00  0.00     0.041 C 
HETATM   10  C   UNK N   1      32.916 -18.772 -76.753  0.00  0.00    -0.068 C 
HETATM   11  C   UNK N   1      30.039 -16.569 -78.542  0.00  0.00     0.043 C 
HETATM   12  C   UNK N   1      34.103 -18.199 -77.008  0.00  0.00     0.019 C 
ENDROOT
BRANCH   1  13
HETATM   13  C   UNK N   1      31.918 -20.562 -81.232  0.00  0.00    -0.015 C 
HETATM   14  C   UNK N   1      30.989 -21.288 -82.224  0.00  0.00     0.010 C 
HETATM   15  C   UNK N   1      32.609 -19.384 -81.936  0.00  0.00     0.010 C 
ENDBRANCH   1  13
TORSDOF 1
ENDMDL
