MODEL 1
REMARK VINA RESULT:      -6.7      0.000      0.000
REMARK  6 active torsions:
REMARK  status: ('A' for Active; 'I' for Inactive)
REMARK    1  A    between atoms: C_1  and  C_2 
REMARK    2  A    between atoms: C_2  and  C_7 
REMARK    3  A    between atoms: C_3  and  C_4 
REMARK    4  A    between atoms: C_4  and  C_7 
REMARK    5  A    between atoms: C_4  and  C_9 
REMARK    6  A    between atoms: C_10  and  C_11 
ROOT
HETATM    1  C   UNK N   1      31.058 -17.823 -74.727  0.00  0.00     0.131 C 
ENDROOT
BRANCH   1   2
HETATM    2  C   UNK N   1      29.748 -17.089 -74.601  0.00  0.00     0.024 C 
HETATM    3  C   UNK N   1      28.623 -17.996 -74.125  0.00  0.00     0.007 C 
ENDBRANCH   1   2
BRANCH   1   4
HETATM    4  C   UNK N   1      31.681 -17.964 -75.866  0.00  0.00    -0.161 C 
BRANCH   4   5
HETATM    5  C   UNK N   1      32.282 -18.086 -77.028  0.00  0.00     0.049 C 
HETATM    6  C   UNK N   1      33.742 -18.404 -77.139  0.00  0.00     0.022 C 
BRANCH   5   7
HETATM    7  C   UNK N   1      31.524 -17.906 -78.316  0.00  0.00     0.011 C 
HETATM    8  C   UNK N   1      30.744 -16.599 -78.338  0.00  0.00     0.006 C 
ENDBRANCH   5   7
ENDBRANCH   4   5
ENDBRANCH   1   4
BRANCH   1   9
HETATM    9  C   UNK N   1      31.677 -18.410 -73.591  0.00  0.00    -0.090 C 
HETATM   10  C   UNK N   1      32.207 -18.910 -72.636  0.00  0.00    -0.106 C 
BRANCH  10  11
HETATM   11  C   UNK N   1      32.844 -19.552 -71.483  0.00  0.00     0.089 C 
HETATM   12  C   UNK N   1      32.872 -18.620 -70.282  0.00  0.00     0.018 C 
ENDBRANCH  10  11
ENDBRANCH   1   9
TORSDOF 6
ENDMDL
MODEL 2
REMARK VINA RESULT:      -6.6      1.002      5.082
REMARK  6 active torsions:
REMARK  status: ('A' for Active; 'I' for Inactive)
REMARK    1  A    between atoms: C_1  and  C_2 
REMARK    2  A    between atoms: C_2  and  C_7 
REMARK    3  A    between atoms: C_3  and  C_4 
REMARK    4  A    between atoms: C_4  and  C_7 
REMARK    5  A    between atoms: C_4  and  C_9 
REMARK    6  A    between atoms: C_10  and  C_11 
ROOT
HETATM    1  C   UNK N   1      30.949 -18.653 -73.354  0.00  0.00     0.131 C 
ENDROOT
BRANCH   1   2
HETATM    2  C   UNK N   1      29.463 -18.600 -73.106  0.00  0.00     0.024 C 
HETATM    3  C   UNK N   1      28.716 -17.914 -74.239  0.00  0.00     0.007 C 
ENDBRANCH   1   2
BRANCH   1   4
HETATM    4  C   UNK N   1      31.808 -18.987 -72.429  0.00  0.00    -0.161 C 
BRANCH   4   5
HETATM    5  C   UNK N   1      32.646 -19.321 -71.473  0.00  0.00     0.049 C 
HETATM    6  C   UNK N   1      32.793 -18.509 -70.224  0.00  0.00     0.022 C 
BRANCH   5   7
HETATM    7  C   UNK N   1      33.508 -20.549 -71.594  0.00  0.00     0.011 C 
HETATM    8  C   UNK N   1      34.026 -20.743 -73.013  0.00  0.00     0.006 C 
ENDBRANCH   5   7
ENDBRANCH   4   5
ENDBRANCH   1   4
BRANCH   1   9
HETATM    9  C   UNK N   1      31.487 -18.331 -74.630  0.00  0.00    -0.090 C 
HETATM   10  C   UNK N   1      31.938 -18.051 -75.707  0.00  0.00    -0.106 C 
BRANCH  10  11
HETATM   11  C   UNK N   1      32.455 -17.701 -77.032  0.00  0.00     0.089 C 
HETATM   12  C   UNK N   1      33.752 -18.437 -77.327  0.00  0.00     0.018 C 
ENDBRANCH  10  11
ENDBRANCH   1   9
TORSDOF 6
ENDMDL
MODEL 3
REMARK VINA RESULT:      -6.6      0.913      2.013
REMARK  6 active torsions:
REMARK  status: ('A' for Active; 'I' for Inactive)
REMARK    1  A    between atoms: C_1  and  C_2 
REMARK    2  A    between atoms: C_2  and  C_7 
REMARK    3  A    between atoms: C_3  and  C_4 
REMARK    4  A    between atoms: C_4  and  C_7 
REMARK    5  A    between atoms: C_4  and  C_9 
REMARK    6  A    between atoms: C_10  and  C_11 
ROOT
HETATM    1  C   UNK N   1      31.131 -18.016 -74.409  0.00  0.00     0.131 C 
ENDROOT
BRANCH   1   2
HETATM    2  C   UNK N   1      29.709 -17.517 -74.370  0.00  0.00     0.024 C 
HETATM    3  C   UNK N   1      28.800 -18.436 -73.568  0.00  0.00     0.007 C 
ENDBRANCH   1   2
BRANCH   1   4
HETATM    4  C   UNK N   1      31.817 -18.107 -75.517  0.00  0.00    -0.161 C 
BRANCH   4   5
HETATM    5  C   UNK N   1      32.480 -18.217 -76.646  0.00  0.00     0.049 C 
HETATM    6  C   UNK N   1      31.985 -17.608 -77.921  0.00  0.00     0.022 C 
BRANCH   5   7
HETATM    7  C   UNK N   1      33.781 -18.971 -76.710  0.00  0.00     0.011 C 
HETATM    8  C   UNK N   1      33.754 -20.227 -75.849  0.00  0.00     0.006 C 
ENDBRANCH   5   7
ENDBRANCH   4   5
ENDBRANCH   1   4
BRANCH   1   9
HETATM    9  C   UNK N   1      31.795 -18.421 -73.219  0.00  0.00    -0.090 C 
HETATM   10  C   UNK N   1      32.351 -18.757 -72.209  0.00  0.00    -0.106 C 
BRANCH  10  11
HETATM   11  C   UNK N   1      33.046 -19.135 -70.976  0.00  0.00     0.089 C 
HETATM   12  C   UNK N   1      33.966 -20.322 -71.205  0.00  0.00     0.018 C 
ENDBRANCH  10  11
ENDBRANCH   1   9
TORSDOF 6
ENDMDL
MODEL 4
REMARK VINA RESULT:      -6.2      2.045      3.863
REMARK  6 active torsions:
REMARK  status: ('A' for Active; 'I' for Inactive)
REMARK    1  A    between atoms: C_1  and  C_2 
REMARK    2  A    between atoms: C_2  and  C_7 
REMARK    3  A    between atoms: C_3  and  C_4 
REMARK    4  A    between atoms: C_4  and  C_7 
REMARK    5  A    between atoms: C_4  and  C_9 
REMARK    6  A    between atoms: C_10  and  C_11 
ROOT
HETATM    1  C   UNK N   1      32.587 -19.391 -72.556  0.00  0.00     0.131 C 
ENDROOT
BRANCH   1   2
HETATM    2  C   UNK N   1      31.929 -19.179 -71.216  0.00  0.00     0.024 C 
HETATM    3  C   UNK N   1      32.891 -18.606 -70.187  0.00  0.00     0.007 C 
ENDBRANCH   1   2
BRANCH   1   4
HETATM    4  C   UNK N   1      32.157 -18.823 -73.651  0.00  0.00    -0.161 C 
BRANCH   4   5
HETATM    5  C   UNK N   1      31.693 -18.250 -74.738  0.00  0.00     0.049 C 
HETATM    6  C   UNK N   1      32.463 -18.240 -76.023  0.00  0.00     0.022 C 
BRANCH   5   7
HETATM    7  C   UNK N   1      30.352 -17.567 -74.741  0.00  0.00     0.011 C 
HETATM    8  C   UNK N   1      29.335 -18.306 -73.883  0.00  0.00     0.006 C 
ENDBRANCH   5   7
ENDBRANCH   4   5
ENDBRANCH   1   4
BRANCH   1   9
HETATM    9  C   UNK N   1      33.721 -20.238 -72.685  0.00  0.00    -0.090 C 
HETATM   10  C   UNK N   1      34.683 -20.949 -72.788  0.00  0.00    -0.106 C 
BRANCH  10  11
HETATM   11  C   UNK N   1      35.876 -21.789 -72.922  0.00  0.00     0.089 C 
HETATM   12  C   UNK N   1      36.658 -21.845 -71.620  0.00  0.00     0.018 C 
ENDBRANCH  10  11
ENDBRANCH   1   9
TORSDOF 6
ENDMDL
MODEL 5
REMARK VINA RESULT:      -6.2      2.889      5.403
REMARK  6 active torsions:
REMARK  status: ('A' for Active; 'I' for Inactive)
REMARK    1  A    between atoms: C_1  and  C_2 
REMARK    2  A    between atoms: C_2  and  C_7 
REMARK    3  A    between atoms: C_3  and  C_4 
REMARK    4  A    between atoms: C_4  and  C_7 
REMARK    5  A    between atoms: C_4  and  C_9 
REMARK    6  A    between atoms: C_10  and  C_11 
ROOT
HETATM    1  C   UNK N   1      34.191 -20.470 -73.868  0.00  0.00     0.131 C 
ENDROOT
BRANCH   1   2
HETATM    2  C   UNK N   1      34.230 -20.874 -75.320  0.00  0.00     0.024 C 
HETATM    3  C   UNK N   1      33.778 -19.751 -76.242  0.00  0.00     0.007 C 
ENDBRANCH   1   2
BRANCH   1   4
HETATM    4  C   UNK N   1      33.220 -19.762 -73.358  0.00  0.00    -0.161 C 
BRANCH   4   5
HETATM    5  C   UNK N   1      32.218 -19.076 -72.856  0.00  0.00     0.049 C 
HETATM    6  C   UNK N   1      31.374 -18.169 -73.697  0.00  0.00     0.022 C 
BRANCH   5   7
HETATM    7  C   UNK N   1      31.872 -19.168 -71.394  0.00  0.00     0.011 C 
HETATM    8  C   UNK N   1      33.040 -18.761 -70.506  0.00  0.00     0.006 C 
ENDBRANCH   5   7
ENDBRANCH   4   5
ENDBRANCH   1   4
BRANCH   1   9
HETATM    9  C   UNK N   1      35.235 -20.845 -72.980  0.00  0.00    -0.090 C 
HETATM   10  C   UNK N   1      36.123 -21.161 -72.236  0.00  0.00    -0.106 C 
BRANCH  10  11
HETATM   11  C   UNK N   1      37.214 -21.574 -71.348  0.00  0.00     0.089 C 
HETATM   12  C   UNK N   1      38.192 -20.434 -71.113  0.00  0.00     0.018 C 
ENDBRANCH  10  11
ENDBRANCH   1   9
TORSDOF 6
ENDMDL
MODEL 6
REMARK VINA RESULT:      -6.0      3.489      6.733
REMARK  6 active torsions:
REMARK  status: ('A' for Active; 'I' for Inactive)
REMARK    1  A    between atoms: C_1  and  C_2 
REMARK    2  A    between atoms: C_2  and  C_7 
REMARK    3  A    between atoms: C_3  and  C_4 
REMARK    4  A    between atoms: C_4  and  C_7 
REMARK    5  A    between atoms: C_4  and  C_9 
REMARK    6  A    between atoms: C_10  and  C_11 
ROOT
HETATM    1  C   UNK N   1      34.349 -20.943 -72.867  0.00  0.00     0.131 C 
ENDROOT
BRANCH   1   2
HETATM    2  C   UNK N   1      33.308 -20.735 -71.797  0.00  0.00     0.024 C 
HETATM    3  C   UNK N   1      33.488 -19.411 -71.070  0.00  0.00     0.007 C 
ENDBRANCH   1   2
BRANCH   1   4
HETATM    4  C   UNK N   1      35.543 -21.404 -72.610  0.00  0.00    -0.161 C 
BRANCH   4   5
HETATM    5  C   UNK N   1      36.731 -21.892 -72.329  0.00  0.00     0.049 C 
HETATM    6  C   UNK N   1      37.328 -23.026 -73.105  0.00  0.00     0.022 C 
BRANCH   5   7
HETATM    7  C   UNK N   1      37.552 -21.330 -71.200  0.00  0.00     0.011 C 
HETATM    8  C   UNK N   1      37.845 -19.849 -71.392  0.00  0.00     0.006 C 
ENDBRANCH   5   7
ENDBRANCH   4   5
ENDBRANCH   1   4
BRANCH   1   9
HETATM    9  C   UNK N   1      34.069 -20.634 -74.226  0.00  0.00    -0.090 C 
HETATM   10  C   UNK N   1      33.835 -20.382 -75.376  0.00  0.00    -0.106 C 
BRANCH  10  11
HETATM   11  C   UNK N   1      33.583 -20.081 -76.788  0.00  0.00     0.089 C 
HETATM   12  C   UNK N   1      33.694 -18.589 -77.060  0.00  0.00     0.018 C 
ENDBRANCH  10  11
ENDBRANCH   1   9
TORSDOF 6
ENDMDL
MODEL 7
REMARK VINA RESULT:      -6.0      2.466      4.137
REMARK  6 active torsions:
REMARK  status: ('A' for Active; 'I' for Inactive)
REMARK    1  A    between atoms: C_1  and  C_2 
REMARK    2  A    between atoms: C_2  and  C_7 
REMARK    3  A    between atoms: C_3  and  C_4 
REMARK    4  A    between atoms: C_4  and  C_7 
REMARK    5  A    between atoms: C_4  and  C_9 
REMARK    6  A    between atoms: C_10  and  C_11 
ROOT
HETATM    1  C   UNK N   1      33.286 -19.893 -72.376  0.00  0.00     0.131 C 
ENDROOT
BRANCH   1   2
HETATM    2  C   UNK N   1      32.258 -19.630 -71.306  0.00  0.00     0.024 C 
HETATM    3  C   UNK N   1      32.746 -18.624 -70.274  0.00  0.00     0.007 C 
ENDBRANCH   1   2
BRANCH   1   4
HETATM    4  C   UNK N   1      33.103 -19.566 -73.627  0.00  0.00    -0.161 C 
BRANCH   4   5
HETATM    5  C   UNK N   1      32.941 -19.209 -74.881  0.00  0.00     0.049 C 
HETATM    6  C   UNK N   1      31.856 -18.268 -75.306  0.00  0.00     0.022 C 
BRANCH   5   7
HETATM    7  C   UNK N   1      33.847 -19.737 -75.960  0.00  0.00     0.011 C 
HETATM    8  C   UNK N   1      33.608 -19.043 -77.294  0.00  0.00     0.006 C 
ENDBRANCH   5   7
ENDBRANCH   4   5
ENDBRANCH   1   4
BRANCH   1   9
HETATM    9  C   UNK N   1      34.520 -20.526 -72.062  0.00  0.00    -0.090 C 
HETATM   10  C   UNK N   1      35.560 -21.059 -71.787  0.00  0.00    -0.106 C 
BRANCH  10  11
HETATM   11  C   UNK N   1      36.838 -21.682 -71.434  0.00  0.00     0.089 C 
HETATM   12  C   UNK N   1      37.917 -20.634 -71.212  0.00  0.00     0.018 C 
ENDBRANCH  10  11
ENDBRANCH   1   9
TORSDOF 6
ENDMDL
MODEL 8
REMARK VINA RESULT:      -5.9      1.451      5.403
REMARK  6 active torsions:
REMARK  status: ('A' for Active; 'I' for Inactive)
REMARK    1  A    between atoms: C_1  and  C_2 
REMARK    2  A    between atoms: C_2  and  C_7 
REMARK    3  A    between atoms: C_3  and  C_4 
REMARK    4  A    between atoms: C_4  and  C_7 
REMARK    5  A    between atoms: C_4  and  C_9 
REMARK    6  A    between atoms: C_10  and  C_11 
ROOT
HETATM    1  C   UNK N   1      32.761 -18.862 -75.582  0.00  0.00     0.131 C 
ENDROOT
BRANCH   1   2
HETATM    2  C   UNK N   1      33.939 -19.765 -75.846  0.00  0.00     0.024 C 
HETATM    3  C   UNK N   1      34.248 -20.669 -74.662  0.00  0.00     0.007 C 
ENDBRANCH   1   2
BRANCH   1   4
HETATM    4  C   UNK N   1      32.209 -18.749 -74.404  0.00  0.00    -0.161 C 
BRANCH   4   5
HETATM    5  C   UNK N   1      31.622 -18.642 -73.234  0.00  0.00     0.049 C 
HETATM    6  C   UNK N   1      32.402 -18.519 -71.961  0.00  0.00     0.022 C 
BRANCH   5   7
HETATM    7  C   UNK N   1      30.121 -18.643 -73.117  0.00  0.00     0.011 C 
HETATM    8  C   UNK N   1      29.465 -17.819 -74.216  0.00  0.00     0.006 C 
ENDBRANCH   5   7
ENDBRANCH   4   5
ENDBRANCH   1   4
BRANCH   1   9
HETATM    9  C   UNK N   1      32.188 -18.087 -76.627  0.00  0.00    -0.090 C 
HETATM   10  C   UNK N   1      31.702 -17.425 -77.503  0.00  0.00    -0.106 C 
BRANCH  10  11
HETATM   11  C   UNK N   1      31.078 -16.619 -78.555  0.00  0.00     0.089 C 
HETATM   12  C   UNK N   1      29.682 -17.125 -78.880  0.00  0.00     0.018 C 
ENDBRANCH  10  11
ENDBRANCH   1   9
TORSDOF 6
ENDMDL
MODEL 9
REMARK VINA RESULT:      -5.9      1.068      5.298
REMARK  6 active torsions:
REMARK  status: ('A' for Active; 'I' for Inactive)
REMARK    1  A    between atoms: C_1  and  C_2 
REMARK    2  A    between atoms: C_2  and  C_7 
REMARK    3  A    between atoms: C_3  and  C_4 
REMARK    4  A    between atoms: C_4  and  C_7 
REMARK    5  A    between atoms: C_4  and  C_9 
REMARK    6  A    between atoms: C_10  and  C_11 
ROOT
HETATM    1  C   UNK N   1      31.297 -18.119 -74.507  0.00  0.00     0.131 C 
ENDROOT
BRANCH   1   2
HETATM    2  C   UNK N   1      29.958 -17.432 -74.431  0.00  0.00     0.024 C 
HETATM    3  C   UNK N   1      28.913 -18.286 -73.729  0.00  0.00     0.007 C 
ENDBRANCH   1   2
BRANCH   1   4
HETATM    4  C   UNK N   1      31.904 -18.602 -73.457  0.00  0.00    -0.161 C 
BRANCH   4   5
HETATM    5  C   UNK N   1      32.489 -19.115 -72.398  0.00  0.00     0.049 C 
HETATM    6  C   UNK N   1      33.449 -20.260 -72.496  0.00  0.00     0.022 C 
BRANCH   5   7
HETATM    7  C   UNK N   1      32.215 -18.571 -71.022  0.00  0.00     0.011 C 
HETATM    8  C   UNK N   1      33.362 -18.851 -70.061  0.00  0.00     0.006 C 
ENDBRANCH   5   7
ENDBRANCH   4   5
ENDBRANCH   1   4
BRANCH   1   9
HETATM    9  C   UNK N   1      31.971 -18.266 -75.750  0.00  0.00    -0.090 C 
HETATM   10  C   UNK N   1      32.532 -18.393 -76.805  0.00  0.00    -0.106 C 
BRANCH  10  11
HETATM   11  C   UNK N   1      33.204 -18.579 -78.093  0.00  0.00     0.089 C 
HETATM   12  C   UNK N   1      32.197 -18.765 -79.216  0.00  0.00     0.018 C 
ENDBRANCH  10  11
ENDBRANCH   1   9
TORSDOF 6
ENDMDL
