MODEL 1
REMARK VINA RESULT:      -7.7      0.000      0.000
REMARK  6 active torsions:
REMARK  status: ('A' for Active; 'I' for Inactive)
REMARK    1  A    between atoms: C_1  and  C_2 
REMARK    2  A    between atoms: C_1  and  C_3 
REMARK    3  A    between atoms: C_2  and  C_5 
REMARK    4  A    between atoms: C_4  and  C_6 
REMARK    5  A    between atoms: C_6  and  C_9 
REMARK    6  A    between atoms: C_12  and  C_14 
ROOT
HETATM    1  C   UNK N   1      32.853 -19.221 -71.402  0.00  0.00    -0.087 C 
HETATM    2  C   UNK N   1      32.101 -18.423 -72.205  0.00  0.00    -0.020 C 
HETATM    3  C   UNK N   1      33.424 -18.631 -70.134  0.00  0.00     0.043 C 
ENDROOT
BRANCH   1   4
HETATM    4  C   UNK N   1      33.141 -20.687 -71.699  0.00  0.00     0.037 C 
BRANCH   4   5
HETATM    5  C   UNK N   1      34.396 -20.904 -72.565  0.00  0.00     0.031 C 
BRANCH   5   6
HETATM    6  C   UNK N   1      35.660 -20.502 -71.833  0.00  0.00    -0.024 C 
HETATM    7  C   UNK N   1      36.835 -21.185 -71.808  0.00  0.00    -0.091 C 
HETATM    8  C   UNK N   1      37.996 -20.608 -71.036  0.00  0.00     0.042 C 
HETATM    9  C   UNK N   1      37.085 -22.495 -72.521  0.00  0.00     0.042 C 
ENDBRANCH   5   6
ENDBRANCH   4   5
ENDBRANCH   1   4
BRANCH   2  10
HETATM   10  C   UNK N   1      31.405 -18.838 -73.477  0.00  0.00     0.055 C 
BRANCH  10  11
HETATM   11  C   UNK N   1      32.233 -18.412 -74.666  0.00  0.00    -0.016 C 
HETATM   12  C   UNK N   1      31.767 -18.065 -75.894  0.00  0.00    -0.066 C 
HETATM   13  C   UNK N   1      30.290 -18.026 -76.250  0.00  0.00     0.048 C 
BRANCH  12  14
HETATM   14  C   UNK N   1      32.774 -17.692 -76.933  0.00  0.00    -0.004 C 
HETATM   15  C   UNK N   1      33.786 -18.489 -77.302  0.00  0.00     0.012 C 
ENDBRANCH  12  14
ENDBRANCH  10  11
ENDBRANCH   2  10
TORSDOF 6
ENDMDL
MODEL 2
REMARK VINA RESULT:      -7.5      1.395      6.450
REMARK  6 active torsions:
REMARK  status: ('A' for Active; 'I' for Inactive)
REMARK    1  A    between atoms: C_1  and  C_2 
REMARK    2  A    between atoms: C_1  and  C_3 
REMARK    3  A    between atoms: C_2  and  C_5 
REMARK    4  A    between atoms: C_4  and  C_6 
REMARK    5  A    between atoms: C_6  and  C_9 
REMARK    6  A    between atoms: C_12  and  C_14 
ROOT
HETATM    1  C   UNK N   1      32.501 -19.214 -71.327  0.00  0.00    -0.087 C 
HETATM    2  C   UNK N   1      33.552 -20.075 -71.347  0.00  0.00    -0.020 C 
HETATM    3  C   UNK N   1      32.285 -18.371 -70.092  0.00  0.00     0.043 C 
ENDROOT
BRANCH   1   4
HETATM    4  C   UNK N   1      31.531 -19.038 -72.489  0.00  0.00     0.037 C 
BRANCH   4   5
HETATM    5  C   UNK N   1      31.887 -17.858 -73.412  0.00  0.00     0.031 C 
BRANCH   5   6
HETATM    6  C   UNK N   1      31.387 -18.078 -74.825  0.00  0.00    -0.024 C 
HETATM    7  C   UNK N   1      30.097 -18.010 -75.250  0.00  0.00    -0.091 C 
HETATM    8  C   UNK N   1      29.798 -18.240 -76.711  0.00  0.00     0.042 C 
HETATM    9  C   UNK N   1      28.913 -17.700 -74.360  0.00  0.00     0.042 C 
ENDBRANCH   5   6
ENDBRANCH   4   5
ENDBRANCH   1   4
BRANCH   2  10
HETATM   10  C   UNK N   1      33.962 -20.957 -72.500  0.00  0.00     0.055 C 
BRANCH  10  11
HETATM   11  C   UNK N   1      35.465 -21.110 -72.507  0.00  0.00    -0.016 C 
HETATM   12  C   UNK N   1      36.238 -21.546 -71.479  0.00  0.00    -0.066 C 
HETATM   13  C   UNK N   1      35.679 -21.985 -70.136  0.00  0.00     0.048 C 
BRANCH  12  14
HETATM   14  C   UNK N   1      37.715 -21.602 -71.703  0.00  0.00    -0.004 C 
HETATM   15  C   UNK N   1      38.539 -20.573 -71.461  0.00  0.00     0.012 C 
ENDBRANCH  12  14
ENDBRANCH  10  11
ENDBRANCH   2  10
TORSDOF 6
ENDMDL
MODEL 3
REMARK VINA RESULT:      -7.5      1.459      5.966
REMARK  6 active torsions:
REMARK  status: ('A' for Active; 'I' for Inactive)
REMARK    1  A    between atoms: C_1  and  C_2 
REMARK    2  A    between atoms: C_1  and  C_3 
REMARK    3  A    between atoms: C_2  and  C_5 
REMARK    4  A    between atoms: C_4  and  C_6 
REMARK    5  A    between atoms: C_6  and  C_9 
REMARK    6  A    between atoms: C_12  and  C_14 
ROOT
HETATM    1  C   UNK N   1      29.679 -17.815 -74.566  0.00  0.00    -0.087 C 
HETATM    2  C   UNK N   1      30.469 -18.359 -73.603  0.00  0.00    -0.020 C 
HETATM    3  C   UNK N   1      28.221 -18.207 -74.606  0.00  0.00     0.043 C 
ENDROOT
BRANCH   1   4
HETATM    4  C   UNK N   1      30.179 -16.817 -75.603  0.00  0.00     0.037 C 
BRANCH   4   5
HETATM    5  C   UNK N   1      30.309 -17.413 -77.016  0.00  0.00     0.031 C 
BRANCH   5   6
HETATM    6  C   UNK N   1      31.117 -18.694 -77.015  0.00  0.00    -0.024 C 
HETATM    7  C   UNK N   1      32.472 -18.799 -77.016  0.00  0.00    -0.091 C 
HETATM    8  C   UNK N   1      33.097 -20.172 -76.990  0.00  0.00     0.042 C 
HETATM    9  C   UNK N   1      33.427 -17.625 -77.025  0.00  0.00     0.042 C 
ENDBRANCH   5   6
ENDBRANCH   4   5
ENDBRANCH   1   4
BRANCH   2  10
HETATM   10  C   UNK N   1      31.927 -18.055 -73.366  0.00  0.00     0.055 C 
BRANCH  10  11
HETATM   11  C   UNK N   1      32.636 -19.310 -72.915  0.00  0.00    -0.016 C 
HETATM   12  C   UNK N   1      33.081 -19.581 -71.661  0.00  0.00    -0.066 C 
HETATM   13  C   UNK N   1      32.898 -18.639 -70.484  0.00  0.00     0.048 C 
BRANCH  12  14
HETATM   14  C   UNK N   1      33.776 -20.887 -71.444  0.00  0.00    -0.004 C 
HETATM   15  C   UNK N   1      35.103 -21.005 -71.305  0.00  0.00     0.012 C 
ENDBRANCH  12  14
ENDBRANCH  10  11
ENDBRANCH   2  10
TORSDOF 6
ENDMDL
MODEL 4
REMARK VINA RESULT:      -7.5      2.044      4.557
REMARK  6 active torsions:
REMARK  status: ('A' for Active; 'I' for Inactive)
REMARK    1  A    between atoms: C_1  and  C_2 
REMARK    2  A    between atoms: C_1  and  C_3 
REMARK    3  A    between atoms: C_2  and  C_5 
REMARK    4  A    between atoms: C_4  and  C_6 
REMARK    5  A    between atoms: C_6  and  C_9 
REMARK    6  A    between atoms: C_12  and  C_14 
ROOT
HETATM    1  C   UNK N   1      36.853 -21.078 -71.611  0.00  0.00    -0.087 C 
HETATM    2  C   UNK N   1      35.660 -20.479 -71.359  0.00  0.00    -0.020 C 
HETATM    3  C   UNK N   1      38.120 -20.299 -71.342  0.00  0.00     0.043 C 
ENDROOT
BRANCH   1   4
HETATM    4  C   UNK N   1      36.990 -22.502 -72.135  0.00  0.00     0.037 C 
BRANCH   4   5
HETATM    5  C   UNK N   1      36.878 -22.606 -73.667  0.00  0.00     0.031 C 
BRANCH   5   6
HETATM    6  C   UNK N   1      37.651 -23.791 -74.208  0.00  0.00    -0.024 C 
HETATM    7  C   UNK N   1      37.597 -24.285 -75.473  0.00  0.00    -0.091 C 
HETATM    8  C   UNK N   1      38.465 -25.467 -75.831  0.00  0.00     0.042 C 
HETATM    9  C   UNK N   1      36.732 -23.725 -76.581  0.00  0.00     0.042 C 
ENDBRANCH   5   6
ENDBRANCH   4   5
ENDBRANCH   1   4
BRANCH   2  10
HETATM   10  C   UNK N   1      34.296 -21.105 -71.511  0.00  0.00     0.055 C 
BRANCH  10  11
HETATM   11  C   UNK N   1      33.437 -20.231 -72.394  0.00  0.00    -0.016 C 
HETATM   12  C   UNK N   1      32.688 -19.170 -71.998  0.00  0.00    -0.066 C 
HETATM   13  C   UNK N   1      32.628 -18.674 -70.564  0.00  0.00     0.048 C 
BRANCH  12  14
HETATM   14  C   UNK N   1      31.897 -18.456 -73.047  0.00  0.00    -0.004 C 
HETATM   15  C   UNK N   1      32.136 -18.570 -74.360  0.00  0.00     0.012 C 
ENDBRANCH  12  14
ENDBRANCH  10  11
ENDBRANCH   2  10
TORSDOF 6
ENDMDL
MODEL 5
REMARK VINA RESULT:      -7.3      1.632      6.776
REMARK  6 active torsions:
REMARK  status: ('A' for Active; 'I' for Inactive)
REMARK    1  A    between atoms: C_1  and  C_2 
REMARK    2  A    between atoms: C_1  and  C_3 
REMARK    3  A    between atoms: C_2  and  C_5 
REMARK    4  A    between atoms: C_4  and  C_6 
REMARK    5  A    between atoms: C_6  and  C_9 
REMARK    6  A    between atoms: C_12  and  C_14 
ROOT
HETATM    1  C   UNK N   1      33.446 -19.823 -74.559  0.00  0.00    -0.087 C 
HETATM    2  C   UNK N   1      34.322 -20.843 -74.751  0.00  0.00    -0.020 C 
HETATM    3  C   UNK N   1      33.133 -18.914 -75.725  0.00  0.00     0.043 C 
ENDROOT
BRANCH   1   4
HETATM    4  C   UNK N   1      32.744 -19.550 -73.234  0.00  0.00     0.037 C 
BRANCH   4   5
HETATM    5  C   UNK N   1      31.934 -18.241 -73.227  0.00  0.00     0.031 C 
BRANCH   5   6
HETATM    6  C   UNK N   1      30.458 -18.491 -73.457  0.00  0.00    -0.024 C 
HETATM    7  C   UNK N   1      29.642 -17.810 -74.304  0.00  0.00    -0.091 C 
HETATM    8  C   UNK N   1      28.195 -18.225 -74.413  0.00  0.00     0.042 C 
HETATM    9  C   UNK N   1      30.078 -16.654 -75.177  0.00  0.00     0.042 C 
ENDBRANCH   5   6
ENDBRANCH   4   5
ENDBRANCH   1   4
BRANCH   2  10
HETATM   10  C   UNK N   1      34.720 -21.883 -73.733  0.00  0.00     0.055 C 
BRANCH  10  11
HETATM   11  C   UNK N   1      35.788 -21.317 -72.826  0.00  0.00    -0.016 C 
HETATM   12  C   UNK N   1      36.988 -21.883 -72.539  0.00  0.00    -0.066 C 
HETATM   13  C   UNK N   1      37.457 -23.201 -73.132  0.00  0.00     0.048 C 
BRANCH  12  14
HETATM   14  C   UNK N   1      37.887 -21.150 -71.596  0.00  0.00    -0.004 C 
HETATM   15  C   UNK N   1      37.810 -19.831 -71.375  0.00  0.00     0.012 C 
ENDBRANCH  12  14
ENDBRANCH  10  11
ENDBRANCH   2  10
TORSDOF 6
ENDMDL
MODEL 6
REMARK VINA RESULT:      -7.2      2.705      6.388
REMARK  6 active torsions:
REMARK  status: ('A' for Active; 'I' for Inactive)
REMARK    1  A    between atoms: C_1  and  C_2 
REMARK    2  A    between atoms: C_1  and  C_3 
REMARK    3  A    between atoms: C_2  and  C_5 
REMARK    4  A    between atoms: C_4  and  C_6 
REMARK    5  A    between atoms: C_6  and  C_9 
REMARK    6  A    between atoms: C_12  and  C_14 
ROOT
HETATM    1  C   UNK N   1      37.138 -21.350 -71.831  0.00  0.00    -0.087 C 
HETATM    2  C   UNK N   1      37.359 -21.666 -73.134  0.00  0.00    -0.020 C 
HETATM    3  C   UNK N   1      37.928 -20.215 -71.223  0.00  0.00     0.043 C 
ENDROOT
BRANCH   1   4
HETATM    4  C   UNK N   1      36.123 -22.066 -70.948  0.00  0.00     0.037 C 
BRANCH   4   5
HETATM    5  C   UNK N   1      34.988 -21.153 -70.452  0.00  0.00     0.031 C 
BRANCH   5   6
HETATM    6  C   UNK N   1      34.124 -20.659 -71.594  0.00  0.00    -0.024 C 
HETATM    7  C   UNK N   1      33.255 -19.614 -71.561  0.00  0.00    -0.091 C 
HETATM    8  C   UNK N   1      32.495 -19.258 -72.815  0.00  0.00     0.042 C 
HETATM    9  C   UNK N   1      32.994 -18.749 -70.347  0.00  0.00     0.042 C 
ENDBRANCH   5   6
ENDBRANCH   4   5
ENDBRANCH   1   4
BRANCH   2  10
HETATM   10  C   UNK N   1      36.638 -22.725 -73.931  0.00  0.00     0.055 C 
BRANCH  10  11
HETATM   11  C   UNK N   1      37.640 -23.718 -74.472  0.00  0.00    -0.016 C 
HETATM   12  C   UNK N   1      37.725 -24.164 -75.751  0.00  0.00    -0.066 C 
HETATM   13  C   UNK N   1      36.811 -23.691 -76.868  0.00  0.00     0.048 C 
BRANCH  12  14
HETATM   14  C   UNK N   1      38.790 -25.167 -76.061  0.00  0.00    -0.004 C 
HETATM   15  C   UNK N   1      38.784 -25.939 -77.156  0.00  0.00     0.012 C 
ENDBRANCH  12  14
ENDBRANCH  10  11
ENDBRANCH   2  10
TORSDOF 6
ENDMDL
MODEL 7
REMARK VINA RESULT:      -7.2      2.774      5.919
REMARK  6 active torsions:
REMARK  status: ('A' for Active; 'I' for Inactive)
REMARK    1  A    between atoms: C_1  and  C_2 
REMARK    2  A    between atoms: C_1  and  C_3 
REMARK    3  A    between atoms: C_2  and  C_5 
REMARK    4  A    between atoms: C_4  and  C_6 
REMARK    5  A    between atoms: C_6  and  C_9 
REMARK    6  A    between atoms: C_12  and  C_14 
ROOT
HETATM    1  C   UNK N   1      29.820 -17.944 -77.117  0.00  0.00    -0.087 C 
HETATM    2  C   UNK N   1      29.522 -18.056 -75.797  0.00  0.00    -0.020 C 
HETATM    3  C   UNK N   1      29.193 -18.924 -78.082  0.00  0.00     0.043 C 
ENDROOT
BRANCH   1   4
HETATM    4  C   UNK N   1      30.741 -16.873 -77.688  0.00  0.00     0.037 C 
BRANCH   4   5
HETATM    5  C   UNK N   1      32.097 -17.421 -78.168  0.00  0.00     0.031 C 
BRANCH   5   6
HETATM    6  C   UNK N   1      32.871 -18.073 -77.041  0.00  0.00    -0.024 C 
HETATM    7  C   UNK N   1      33.120 -19.401 -76.890  0.00  0.00    -0.091 C 
HETATM    8  C   UNK N   1      33.935 -19.859 -75.705  0.00  0.00     0.042 C 
HETATM    9  C   UNK N   1      32.650 -20.479 -77.841  0.00  0.00     0.042 C 
ENDBRANCH   5   6
ENDBRANCH   4   5
ENDBRANCH   1   4
BRANCH   2  10
HETATM   10  C   UNK N   1      30.002 -17.148 -74.692  0.00  0.00     0.055 C 
BRANCH  10  11
HETATM   11  C   UNK N   1      31.115 -17.827 -73.929  0.00  0.00    -0.016 C 
HETATM   12  C   UNK N   1      30.976 -18.641 -72.851  0.00  0.00    -0.066 C 
HETATM   13  C   UNK N   1      29.632 -19.020 -72.253  0.00  0.00     0.048 C 
BRANCH  12  14
HETATM   14  C   UNK N   1      32.224 -19.193 -72.240  0.00  0.00    -0.004 C 
HETATM   15  C   UNK N   1      32.642 -18.884 -71.005  0.00  0.00     0.012 C 
ENDBRANCH  12  14
ENDBRANCH  10  11
ENDBRANCH   2  10
TORSDOF 6
ENDMDL
MODEL 8
REMARK VINA RESULT:      -7.0      2.042      4.290
REMARK  6 active torsions:
REMARK  status: ('A' for Active; 'I' for Inactive)
REMARK    1  A    between atoms: C_1  and  C_2 
REMARK    2  A    between atoms: C_1  and  C_3 
REMARK    3  A    between atoms: C_2  and  C_5 
REMARK    4  A    between atoms: C_4  and  C_6 
REMARK    5  A    between atoms: C_6  and  C_9 
REMARK    6  A    between atoms: C_12  and  C_14 
ROOT
HETATM    1  C   UNK N   1      29.740 -17.947 -75.060  0.00  0.00    -0.087 C 
HETATM    2  C   UNK N   1      29.394 -18.070 -76.368  0.00  0.00    -0.020 C 
HETATM    3  C   UNK N   1      28.713 -18.295 -74.008  0.00  0.00     0.043 C 
ENDROOT
BRANCH   1   4
HETATM    4  C   UNK N   1      31.116 -17.491 -74.591  0.00  0.00     0.037 C 
BRANCH   4   5
HETATM    5  C   UNK N   1      31.953 -18.617 -73.956  0.00  0.00     0.031 C 
BRANCH   5   6
HETATM    6  C   UNK N   1      32.172 -18.388 -72.475  0.00  0.00    -0.024 C 
HETATM    7  C   UNK N   1      32.840 -19.205 -71.617  0.00  0.00    -0.091 C 
HETATM    8  C   UNK N   1      32.973 -18.791 -70.172  0.00  0.00     0.042 C 
HETATM    9  C   UNK N   1      33.489 -20.515 -72.006  0.00  0.00     0.042 C 
ENDBRANCH   5   6
ENDBRANCH   4   5
ENDBRANCH   1   4
BRANCH   2  10
HETATM   10  C   UNK N   1      30.289 -17.825 -77.557  0.00  0.00     0.055 C 
BRANCH  10  11
HETATM   11  C   UNK N   1      30.959 -19.118 -77.959  0.00  0.00    -0.016 C 
HETATM   12  C   UNK N   1      32.292 -19.375 -77.949  0.00  0.00    -0.066 C 
HETATM   13  C   UNK N   1      33.336 -18.373 -77.488  0.00  0.00     0.048 C 
BRANCH  12  14
HETATM   14  C   UNK N   1      32.736 -20.727 -78.408  0.00  0.00    -0.004 C 
HETATM   15  C   UNK N   1      33.777 -20.925 -79.227  0.00  0.00     0.012 C 
ENDBRANCH  12  14
ENDBRANCH  10  11
ENDBRANCH   2  10
TORSDOF 6
ENDMDL
MODEL 9
REMARK VINA RESULT:      -6.7      5.254      8.764
REMARK  6 active torsions:
REMARK  status: ('A' for Active; 'I' for Inactive)
REMARK    1  A    between atoms: C_1  and  C_2 
REMARK    2  A    between atoms: C_1  and  C_3 
REMARK    3  A    between atoms: C_2  and  C_5 
REMARK    4  A    between atoms: C_4  and  C_6 
REMARK    5  A    between atoms: C_6  and  C_9 
REMARK    6  A    between atoms: C_12  and  C_14 
ROOT
HETATM    1  C   UNK N   1      38.920 -25.091 -75.654  0.00  0.00    -0.087 C 
HETATM    2  C   UNK N   1      38.208 -24.810 -74.532  0.00  0.00    -0.020 C 
HETATM    3  C   UNK N   1      39.835 -26.294 -75.644  0.00  0.00     0.043 C 
ENDROOT
BRANCH   1   4
HETATM    4  C   UNK N   1      38.839 -24.268 -76.934  0.00  0.00     0.037 C 
BRANCH   4   5
HETATM    5  C   UNK N   1      38.884 -25.120 -78.216  0.00  0.00     0.031 C 
BRANCH   5   6
HETATM    6  C   UNK N   1      39.825 -24.533 -79.248  0.00  0.00    -0.024 C 
HETATM    7  C   UNK N   1      39.479 -23.991 -80.446  0.00  0.00    -0.091 C 
HETATM    8  C   UNK N   1      40.564 -23.434 -81.334  0.00  0.00     0.042 C 
HETATM    9  C   UNK N   1      38.062 -23.885 -80.966  0.00  0.00     0.042 C 
ENDBRANCH   5   6
ENDBRANCH   4   5
ENDBRANCH   1   4
BRANCH   2  10
HETATM   10  C   UNK N   1      37.209 -23.693 -74.364  0.00  0.00     0.055 C 
BRANCH  10  11
HETATM   11  C   UNK N   1      37.471 -22.975 -73.061  0.00  0.00    -0.016 C 
HETATM   12  C   UNK N   1      36.752 -21.943 -72.548  0.00  0.00    -0.066 C 
HETATM   13  C   UNK N   1      35.522 -21.360 -73.222  0.00  0.00     0.048 C 
BRANCH  12  14
HETATM   14  C   UNK N   1      37.206 -21.370 -71.243  0.00  0.00    -0.004 C 
HETATM   15  C   UNK N   1      38.123 -20.399 -71.141  0.00  0.00     0.012 C 
ENDBRANCH  12  14
ENDBRANCH  10  11
ENDBRANCH   2  10
TORSDOF 6
ENDMDL
