MODEL 1
REMARK VINA RESULT:      -6.3      0.000      0.000
REMARK  12 active torsions:
REMARK  status: ('A' for Active; 'I' for Inactive)
REMARK    1  A    between atoms: O_1  and  C_14 
REMARK    2  A    between atoms: C_2  and  C_3 
REMARK    3  A    between atoms: C_2  and  C_6 
REMARK    4  A    between atoms: C_3  and  C_8 
REMARK    5  A    between atoms: C_4  and  C_5 
REMARK    6  A    between atoms: C_4  and  C_10 
REMARK    7  A    between atoms: C_5  and  C_11 
REMARK    8  A    between atoms: C_7  and  C_9 
REMARK    9  A    between atoms: C_7  and  C_12 
REMARK   10  A    between atoms: C_9  and  C_14 
REMARK   11  A    between atoms: C_11  and  C_15 
REMARK   12  A    between atoms: C_12  and  C_16 
ROOT
HETATM    1  C   UNK N   1      31.768 -18.306 -72.874  0.00  0.00     0.094 C 
ENDROOT
BRANCH   1   2
HETATM    2  C   UNK N   1      30.313 -18.796 -72.828  0.00  0.00     0.016 C 
BRANCH   2   3
HETATM    3  C   UNK N   1      29.466 -18.260 -73.995  0.00  0.00     0.027 C 
BRANCH   3   4
HETATM    4  C   UNK N   1      30.341 -17.615 -75.046  0.00  0.00    -0.031 C 
HETATM    5  C   UNK N   1      30.308 -18.018 -76.337  0.00  0.00    -0.031 C 
BRANCH   5   6
HETATM    6  C   UNK N   1      31.139 -17.388 -77.435  0.00  0.00     0.027 C 
BRANCH   6   7
HETATM    7  C   UNK N   1      32.656 -17.658 -77.318  0.00  0.00     0.003 C 
BRANCH   7   8
HETATM    8  C   UNK N   1      32.985 -19.157 -77.246  0.00  0.00    -0.004 C 
HETATM    9  C   UNK N   1      33.631 -19.553 -75.918  0.00  0.00     0.005 C 
ENDBRANCH   7   8
ENDBRANCH   6   7
ENDBRANCH   5   6
ENDBRANCH   3   4
ENDBRANCH   2   3
ENDBRANCH   1   2
BRANCH   1  10
HETATM   10  C   UNK N   1      32.676 -19.284 -72.258  0.00  0.00    -0.107 C 
HETATM   11  C   UNK N   1      33.437 -20.047 -71.717  0.00  0.00    -0.107 C 
BRANCH  11  12
HETATM   12  C   UNK N   1      34.430 -20.935 -71.096  0.00  0.00     0.094 C 
BRANCH  12  13
HETATM   13  C   UNK N   1      35.693 -21.050 -71.964  0.00  0.00     0.014 C 
BRANCH  13  14
HETATM   14  C   UNK N   1      36.942 -21.434 -71.148  0.00  0.00     0.027 C 
BRANCH  14  15
HETATM   15  C   UNK N   1      38.055 -20.392 -71.284  0.00  0.00     0.164 C 
BRANCH  15  16
HETATM   16  O   UNK N   1      38.157 -20.001 -72.626  0.00  0.00    -0.401 OA
HETATM   17  H   UNK N   1      38.839 -19.281 -72.655  0.00  0.00     0.209 HD
ENDBRANCH  15  16
ENDBRANCH  14  15
ENDBRANCH  13  14
ENDBRANCH  12  13
ENDBRANCH  11  12
ENDBRANCH   1  10
TORSDOF 12
ENDMDL
MODEL 2
REMARK VINA RESULT:      -6.3      1.928      6.356
REMARK  12 active torsions:
REMARK  status: ('A' for Active; 'I' for Inactive)
REMARK    1  A    between atoms: O_1  and  C_14 
REMARK    2  A    between atoms: C_2  and  C_3 
REMARK    3  A    between atoms: C_2  and  C_6 
REMARK    4  A    between atoms: C_3  and  C_8 
REMARK    5  A    between atoms: C_4  and  C_5 
REMARK    6  A    between atoms: C_4  and  C_10 
REMARK    7  A    between atoms: C_5  and  C_11 
REMARK    8  A    between atoms: C_7  and  C_9 
REMARK    9  A    between atoms: C_7  and  C_12 
REMARK   10  A    between atoms: C_9  and  C_14 
REMARK   11  A    between atoms: C_11  and  C_15 
REMARK   12  A    between atoms: C_12  and  C_16 
ROOT
HETATM    1  C   UNK N   1      30.730 -18.576 -73.197  0.00  0.00     0.094 C 
ENDROOT
BRANCH   1   2
HETATM    2  C   UNK N   1      32.186 -18.607 -72.709  0.00  0.00     0.016 C 
BRANCH   2   3
HETATM    3  C   UNK N   1      32.333 -19.223 -71.307  0.00  0.00     0.027 C 
BRANCH   3   4
HETATM    4  C   UNK N   1      33.519 -20.161 -71.251  0.00  0.00    -0.031 C 
HETATM    5  C   UNK N   1      34.194 -20.512 -72.369  0.00  0.00    -0.031 C 
BRANCH   5   6
HETATM    6  C   UNK N   1      35.406 -21.422 -72.367  0.00  0.00     0.027 C 
BRANCH   6   7
HETATM    7  C   UNK N   1      36.140 -21.499 -71.010  0.00  0.00     0.003 C 
BRANCH   7   8
HETATM    8  C   UNK N   1      37.627 -21.128 -71.121  0.00  0.00    -0.004 C 
HETATM    9  C   UNK N   1      37.879 -20.011 -72.134  0.00  0.00     0.005 C 
ENDBRANCH   7   8
ENDBRANCH   6   7
ENDBRANCH   5   6
ENDBRANCH   3   4
ENDBRANCH   2   3
ENDBRANCH   1   2
BRANCH   1  10
HETATM   10  C   UNK N   1      30.639 -18.037 -74.561  0.00  0.00    -0.107 C 
HETATM   11  C   UNK N   1      30.606 -17.628 -75.694  0.00  0.00    -0.107 C 
BRANCH  11  12
HETATM   12  C   UNK N   1      30.640 -17.084 -77.060  0.00  0.00     0.094 C 
BRANCH  12  13
HETATM   13  C   UNK N   1      31.721 -17.773 -77.906  0.00  0.00     0.014 C 
BRANCH  13  14
HETATM   14  C   UNK N   1      33.092 -17.810 -77.203  0.00  0.00     0.027 C 
BRANCH  14  15
HETATM   15  C   UNK N   1      33.569 -19.244 -76.957  0.00  0.00     0.164 C 
BRANCH  15  16
HETATM   16  O   UNK N   1      33.866 -19.847 -78.186  0.00  0.00    -0.401 OA
HETATM   17  H   UNK N   1      34.180 -19.119 -78.784  0.00  0.00     0.209 HD
ENDBRANCH  15  16
ENDBRANCH  14  15
ENDBRANCH  13  14
ENDBRANCH  12  13
ENDBRANCH  11  12
ENDBRANCH   1  10
TORSDOF 12
ENDMDL
MODEL 3
REMARK VINA RESULT:      -6.2      2.764      6.747
REMARK  12 active torsions:
REMARK  status: ('A' for Active; 'I' for Inactive)
REMARK    1  A    between atoms: O_1  and  C_14 
REMARK    2  A    between atoms: C_2  and  C_3 
REMARK    3  A    between atoms: C_2  and  C_6 
REMARK    4  A    between atoms: C_3  and  C_8 
REMARK    5  A    between atoms: C_4  and  C_5 
REMARK    6  A    between atoms: C_4  and  C_10 
REMARK    7  A    between atoms: C_5  and  C_11 
REMARK    8  A    between atoms: C_7  and  C_9 
REMARK    9  A    between atoms: C_7  and  C_12 
REMARK   10  A    between atoms: C_9  and  C_14 
REMARK   11  A    between atoms: C_11  and  C_15 
REMARK   12  A    between atoms: C_12  and  C_16 
ROOT
HETATM    1  C   UNK N   1      31.846 -18.000 -73.098  0.00  0.00     0.094 C 
ENDROOT
BRANCH   1   2
HETATM    2  C   UNK N   1      31.691 -19.197 -72.147  0.00  0.00     0.016 C 
BRANCH   2   3
HETATM    3  C   UNK N   1      32.579 -19.085 -70.897  0.00  0.00     0.027 C 
BRANCH   3   4
HETATM    4  C   UNK N   1      33.947 -19.676 -71.152  0.00  0.00    -0.031 C 
HETATM    5  C   UNK N   1      34.120 -20.717 -71.998  0.00  0.00    -0.031 C 
BRANCH   5   6
HETATM    6  C   UNK N   1      35.470 -21.328 -72.314  0.00  0.00     0.027 C 
BRANCH   6   7
HETATM    7  C   UNK N   1      36.324 -21.661 -71.070  0.00  0.00     0.003 C 
BRANCH   7   8
HETATM    8  C   UNK N   1      37.621 -20.839 -71.007  0.00  0.00    -0.004 C 
HETATM    9  C   UNK N   1      37.906 -20.092 -72.311  0.00  0.00     0.005 C 
ENDBRANCH   7   8
ENDBRANCH   6   7
ENDBRANCH   5   6
ENDBRANCH   3   4
ENDBRANCH   2   3
ENDBRANCH   1   2
BRANCH   1  10
HETATM   10  C   UNK N   1      32.302 -18.434 -74.426  0.00  0.00    -0.107 C 
HETATM   11  C   UNK N   1      32.686 -18.841 -75.494  0.00  0.00    -0.107 C 
BRANCH  11  12
HETATM   12  C   UNK N   1      33.235 -19.334 -76.766  0.00  0.00     0.094 C 
BRANCH  12  13
HETATM   13  C   UNK N   1      32.501 -18.715 -77.966  0.00  0.00     0.014 C 
BRANCH  13  14
HETATM   14  C   UNK N   1      31.113 -19.340 -78.199  0.00  0.00     0.027 C 
BRANCH  14  15
HETATM   15  C   UNK N   1      29.991 -18.309 -78.057  0.00  0.00     0.164 C 
BRANCH  15  16
HETATM   16  O   UNK N   1      29.434 -18.408 -76.775  0.00  0.00    -0.401 OA
HETATM   17  H   UNK N   1      29.164 -17.489 -76.517  0.00  0.00     0.209 HD
ENDBRANCH  15  16
ENDBRANCH  14  15
ENDBRANCH  13  14
ENDBRANCH  12  13
ENDBRANCH  11  12
ENDBRANCH   1  10
TORSDOF 12
ENDMDL
MODEL 4
REMARK VINA RESULT:      -6.2      3.733      5.949
REMARK  12 active torsions:
REMARK  status: ('A' for Active; 'I' for Inactive)
REMARK    1  A    between atoms: O_1  and  C_14 
REMARK    2  A    between atoms: C_2  and  C_3 
REMARK    3  A    between atoms: C_2  and  C_6 
REMARK    4  A    between atoms: C_3  and  C_8 
REMARK    5  A    between atoms: C_4  and  C_5 
REMARK    6  A    between atoms: C_4  and  C_10 
REMARK    7  A    between atoms: C_5  and  C_11 
REMARK    8  A    between atoms: C_7  and  C_9 
REMARK    9  A    between atoms: C_7  and  C_12 
REMARK   10  A    between atoms: C_9  and  C_14 
REMARK   11  A    between atoms: C_11  and  C_15 
REMARK   12  A    between atoms: C_12  and  C_16 
ROOT
HETATM    1  C   UNK N   1      37.244 -21.705 -71.594  0.00  0.00     0.094 C 
ENDROOT
BRANCH   1   2
HETATM    2  C   UNK N   1      36.166 -20.616 -71.714  0.00  0.00     0.016 C 
BRANCH   2   3
HETATM    3  C   UNK N   1      34.821 -21.037 -71.098  0.00  0.00     0.027 C 
BRANCH   3   4
HETATM    4  C   UNK N   1      33.664 -20.471 -71.889  0.00  0.00    -0.031 C 
HETATM    5  C   UNK N   1      32.701 -19.728 -71.297  0.00  0.00    -0.031 C 
BRANCH   5   6
HETATM    6  C   UNK N   1      31.537 -19.112 -72.046  0.00  0.00     0.027 C 
BRANCH   6   7
HETATM    7  C   UNK N   1      31.949 -18.228 -73.245  0.00  0.00     0.003 C 
BRANCH   7   8
HETATM    8  C   UNK N   1      30.880 -18.192 -74.348  0.00  0.00    -0.004 C 
HETATM    9  C   UNK N   1      29.464 -18.376 -73.799  0.00  0.00     0.005 C 
ENDBRANCH   7   8
ENDBRANCH   6   7
ENDBRANCH   5   6
ENDBRANCH   3   4
ENDBRANCH   2   3
ENDBRANCH   1   2
BRANCH   1  10
HETATM   10  C   UNK N   1      37.270 -22.557 -72.791  0.00  0.00    -0.107 C 
HETATM   11  C   UNK N   1      37.236 -23.259 -73.771  0.00  0.00    -0.107 C 
BRANCH  11  12
HETATM   12  C   UNK N   1      37.175 -24.183 -74.913  0.00  0.00     0.094 C 
BRANCH  12  13
HETATM   13  C   UNK N   1      38.580 -24.643 -75.331  0.00  0.00     0.014 C 
BRANCH  13  14
HETATM   14  C   UNK N   1      39.021 -25.931 -74.609  0.00  0.00     0.027 C 
BRANCH  14  15
HETATM   15  C   UNK N   1      37.934 -27.008 -74.647  0.00  0.00     0.164 C 
BRANCH  15  16
HETATM   16  O   UNK N   1      38.525 -28.265 -74.459  0.00  0.00    -0.401 OA
HETATM   17  H   UNK N   1      38.609 -28.670 -75.361  0.00  0.00     0.209 HD
ENDBRANCH  15  16
ENDBRANCH  14  15
ENDBRANCH  13  14
ENDBRANCH  12  13
ENDBRANCH  11  12
ENDBRANCH   1  10
TORSDOF 12
ENDMDL
MODEL 5
REMARK VINA RESULT:      -6.0      1.227      3.561
REMARK  12 active torsions:
REMARK  status: ('A' for Active; 'I' for Inactive)
REMARK    1  A    between atoms: O_1  and  C_14 
REMARK    2  A    between atoms: C_2  and  C_3 
REMARK    3  A    between atoms: C_2  and  C_6 
REMARK    4  A    between atoms: C_3  and  C_8 
REMARK    5  A    between atoms: C_4  and  C_5 
REMARK    6  A    between atoms: C_4  and  C_10 
REMARK    7  A    between atoms: C_5  and  C_11 
REMARK    8  A    between atoms: C_7  and  C_9 
REMARK    9  A    between atoms: C_7  and  C_12 
REMARK   10  A    between atoms: C_9  and  C_14 
REMARK   11  A    between atoms: C_11  and  C_15 
REMARK   12  A    between atoms: C_12  and  C_16 
ROOT
HETATM    1  C   UNK N   1      33.368 -19.698 -76.945  0.00  0.00     0.094 C 
ENDROOT
BRANCH   1   2
HETATM    2  C   UNK N   1      33.091 -18.198 -76.760  0.00  0.00     0.016 C 
BRANCH   2   3
HETATM    3  C   UNK N   1      31.676 -17.794 -77.208  0.00  0.00     0.027 C 
BRANCH   3   4
HETATM    4  C   UNK N   1      30.657 -18.122 -76.140  0.00  0.00    -0.031 C 
HETATM    5  C   UNK N   1      30.938 -17.966 -74.826  0.00  0.00    -0.031 C 
BRANCH   5   6
HETATM    6  C   UNK N   1      29.946 -18.250 -73.716  0.00  0.00     0.027 C 
BRANCH   6   7
HETATM    7  C   UNK N   1      30.557 -18.946 -72.479  0.00  0.00     0.003 C 
BRANCH   7   8
HETATM    8  C   UNK N   1      32.093 -18.961 -72.509  0.00  0.00    -0.004 C 
HETATM    9  C   UNK N   1      32.709 -18.583 -71.161  0.00  0.00     0.005 C 
ENDBRANCH   7   8
ENDBRANCH   6   7
ENDBRANCH   5   6
ENDBRANCH   3   4
ENDBRANCH   2   3
ENDBRANCH   1   2
BRANCH   1  10
HETATM   10  C   UNK N   1      33.879 -20.299 -75.706  0.00  0.00    -0.107 C 
HETATM   11  C   UNK N   1      34.297 -20.742 -74.665  0.00  0.00    -0.107 C 
BRANCH  11  12
HETATM   12  C   UNK N   1      34.884 -21.244 -73.414  0.00  0.00     0.094 C 
BRANCH  12  13
HETATM   13  C   UNK N   1      35.982 -22.283 -73.693  0.00  0.00     0.014 C 
BRANCH  13  14
HETATM   14  C   UNK N   1      36.964 -22.440 -72.516  0.00  0.00     0.027 C 
BRANCH  14  15
HETATM   15  C   UNK N   1      36.538 -21.609 -71.303  0.00  0.00     0.164 C 
BRANCH  15  16
HETATM   16  O   UNK N   1      37.642 -20.888 -70.828  0.00  0.00    -0.401 OA
HETATM   17  H   UNK N   1      37.927 -20.295 -71.572  0.00  0.00     0.209 HD
ENDBRANCH  15  16
ENDBRANCH  14  15
ENDBRANCH  13  14
ENDBRANCH  12  13
ENDBRANCH  11  12
ENDBRANCH   1  10
TORSDOF 12
ENDMDL
MODEL 6
REMARK VINA RESULT:      -6.0      2.855      7.026
REMARK  12 active torsions:
REMARK  status: ('A' for Active; 'I' for Inactive)
REMARK    1  A    between atoms: O_1  and  C_14 
REMARK    2  A    between atoms: C_2  and  C_3 
REMARK    3  A    between atoms: C_2  and  C_6 
REMARK    4  A    between atoms: C_3  and  C_8 
REMARK    5  A    between atoms: C_4  and  C_5 
REMARK    6  A    between atoms: C_4  and  C_10 
REMARK    7  A    between atoms: C_5  and  C_11 
REMARK    8  A    between atoms: C_7  and  C_9 
REMARK    9  A    between atoms: C_7  and  C_12 
REMARK   10  A    between atoms: C_9  and  C_14 
REMARK   11  A    between atoms: C_11  and  C_15 
REMARK   12  A    between atoms: C_12  and  C_16 
ROOT
HETATM    1  C   UNK N   1      31.460 -18.206 -73.711  0.00  0.00     0.094 C 
ENDROOT
BRANCH   1   2
HETATM    2  C   UNK N   1      32.500 -19.142 -73.075  0.00  0.00     0.016 C 
BRANCH   2   3
HETATM    3  C   UNK N   1      32.403 -19.186 -71.540  0.00  0.00     0.027 C 
BRANCH   3   4
HETATM    4  C   UNK N   1      33.694 -19.687 -70.932  0.00  0.00    -0.031 C 
HETATM    5  C   UNK N   1      34.299 -20.809 -71.386  0.00  0.00    -0.031 C 
BRANCH   5   6
HETATM    6  C   UNK N   1      35.607 -21.339 -70.835  0.00  0.00     0.027 C 
BRANCH   6   7
HETATM    7  C   UNK N   1      36.479 -22.083 -71.872  0.00  0.00     0.003 C 
BRANCH   7   8
HETATM    8  C   UNK N   1      37.904 -21.517 -71.960  0.00  0.00    -0.004 C 
HETATM    9  C   UNK N   1      38.129 -20.342 -71.007  0.00  0.00     0.005 C 
ENDBRANCH   7   8
ENDBRANCH   6   7
ENDBRANCH   5   6
ENDBRANCH   3   4
ENDBRANCH   2   3
ENDBRANCH   1   2
BRANCH   1  10
HETATM   10  C   UNK N   1      31.677 -18.079 -75.159  0.00  0.00    -0.107 C 
HETATM   11  C   UNK N   1      31.893 -18.016 -76.343  0.00  0.00    -0.107 C 
BRANCH  11  12
HETATM   12  C   UNK N   1      32.232 -17.899 -77.769  0.00  0.00     0.094 C 
BRANCH  12  13
HETATM   13  C   UNK N   1      32.991 -19.139 -78.264  0.00  0.00     0.014 C 
BRANCH  13  14
HETATM   14  C   UNK N   1      32.116 -20.408 -78.271  0.00  0.00     0.027 C 
BRANCH  14  15
HETATM   15  C   UNK N   1      31.179 -20.448 -79.480  0.00  0.00     0.164 C 
BRANCH  15  16
HETATM   16  O   UNK N   1      31.621 -21.435 -80.371  0.00  0.00    -0.401 OA
HETATM   17  H   UNK N   1      31.184 -22.281 -80.089  0.00  0.00     0.209 HD
ENDBRANCH  15  16
ENDBRANCH  14  15
ENDBRANCH  13  14
ENDBRANCH  12  13
ENDBRANCH  11  12
ENDBRANCH   1  10
TORSDOF 12
ENDMDL
MODEL 7
REMARK VINA RESULT:      -5.9      1.908      6.338
REMARK  12 active torsions:
REMARK  status: ('A' for Active; 'I' for Inactive)
REMARK    1  A    between atoms: O_1  and  C_14 
REMARK    2  A    between atoms: C_2  and  C_3 
REMARK    3  A    between atoms: C_2  and  C_6 
REMARK    4  A    between atoms: C_3  and  C_8 
REMARK    5  A    between atoms: C_4  and  C_5 
REMARK    6  A    between atoms: C_4  and  C_10 
REMARK    7  A    between atoms: C_5  and  C_11 
REMARK    8  A    between atoms: C_7  and  C_9 
REMARK    9  A    between atoms: C_7  and  C_12 
REMARK   10  A    between atoms: C_9  and  C_14 
REMARK   11  A    between atoms: C_11  and  C_15 
REMARK   12  A    between atoms: C_12  and  C_16 
ROOT
HETATM    1  C   UNK N   1      32.626 -18.482 -71.581  0.00  0.00     0.094 C 
ENDROOT
BRANCH   1   2
HETATM    2  C   UNK N   1      32.551 -19.977 -71.233  0.00  0.00     0.016 C 
BRANCH   2   3
HETATM    3  C   UNK N   1      33.330 -20.859 -72.224  0.00  0.00     0.027 C 
BRANCH   3   4
HETATM    4  C   UNK N   1      34.821 -20.676 -72.055  0.00  0.00    -0.031 C 
HETATM    5  C   UNK N   1      35.493 -21.262 -71.037  0.00  0.00    -0.031 C 
BRANCH   5   6
HETATM    6  C   UNK N   1      36.990 -21.136 -70.838  0.00  0.00     0.027 C 
BRANCH   6   7
HETATM    7  C   UNK N   1      37.830 -21.508 -72.080  0.00  0.00     0.003 C 
BRANCH   7   8
HETATM    8  C   UNK N   1      37.447 -22.876 -72.665  0.00  0.00    -0.004 C 
HETATM    9  C   UNK N   1      37.092 -22.800 -74.151  0.00  0.00     0.005 C 
ENDBRANCH   7   8
ENDBRANCH   6   7
ENDBRANCH   5   6
ENDBRANCH   3   4
ENDBRANCH   2   3
ENDBRANCH   1   2
BRANCH   1  10
HETATM   10  C   UNK N   1      32.032 -18.215 -72.898  0.00  0.00    -0.107 C 
HETATM   11  C   UNK N   1      31.500 -17.974 -73.954  0.00  0.00    -0.107 C 
BRANCH  11  12
HETATM   12  C   UNK N   1      30.798 -17.747 -75.225  0.00  0.00     0.094 C 
BRANCH  12  13
HETATM   13  C   UNK N   1      31.430 -18.564 -76.363  0.00  0.00     0.014 C 
BRANCH  13  14
HETATM   14  C   UNK N   1      32.373 -17.722 -77.244  0.00  0.00     0.027 C 
BRANCH  14  15
HETATM   15  C   UNK N   1      33.796 -18.287 -77.260  0.00  0.00     0.164 C 
BRANCH  15  16
HETATM   16  O   UNK N   1      33.892 -19.318 -76.316  0.00  0.00    -0.401 OA
HETATM   17  H   UNK N   1      34.544 -19.011 -75.634  0.00  0.00     0.209 HD
ENDBRANCH  15  16
ENDBRANCH  14  15
ENDBRANCH  13  14
ENDBRANCH  12  13
ENDBRANCH  11  12
ENDBRANCH   1  10
TORSDOF 12
ENDMDL
MODEL 8
REMARK VINA RESULT:      -5.9      3.503      5.959
REMARK  12 active torsions:
REMARK  status: ('A' for Active; 'I' for Inactive)
REMARK    1  A    between atoms: O_1  and  C_14 
REMARK    2  A    between atoms: C_2  and  C_3 
REMARK    3  A    between atoms: C_2  and  C_6 
REMARK    4  A    between atoms: C_3  and  C_8 
REMARK    5  A    between atoms: C_4  and  C_5 
REMARK    6  A    between atoms: C_4  and  C_10 
REMARK    7  A    between atoms: C_5  and  C_11 
REMARK    8  A    between atoms: C_7  and  C_9 
REMARK    9  A    between atoms: C_7  and  C_12 
REMARK   10  A    between atoms: C_9  and  C_14 
REMARK   11  A    between atoms: C_11  and  C_15 
REMARK   12  A    between atoms: C_12  and  C_16 
ROOT
HETATM    1  C   UNK N   1      37.673 -21.178 -71.577  0.00  0.00     0.094 C 
ENDROOT
BRANCH   1   2
HETATM    2  C   UNK N   1      36.377 -20.397 -71.311  0.00  0.00     0.016 C 
BRANCH   2   3
HETATM    3  C   UNK N   1      35.186 -21.312 -70.979  0.00  0.00     0.027 C 
BRANCH   3   4
HETATM    4  C   UNK N   1      33.908 -20.776 -71.585  0.00  0.00    -0.031 C 
HETATM    5  C   UNK N   1      33.404 -19.575 -71.221  0.00  0.00    -0.031 C 
BRANCH   5   6
HETATM    6  C   UNK N   1      32.146 -18.977 -71.817  0.00  0.00     0.027 C 
BRANCH   6   7
HETATM    7  C   UNK N   1      32.135 -18.929 -73.361  0.00  0.00     0.003 C 
BRANCH   7   8
HETATM    8  C   UNK N   1      31.180 -17.858 -73.912  0.00  0.00    -0.004 C 
HETATM    9  C   UNK N   1      29.719 -18.309 -73.893  0.00  0.00     0.005 C 
ENDBRANCH   7   8
ENDBRANCH   6   7
ENDBRANCH   5   6
ENDBRANCH   3   4
ENDBRANCH   2   3
ENDBRANCH   1   2
BRANCH   1  10
HETATM   10  C   UNK N   1      37.473 -22.195 -72.619  0.00  0.00    -0.107 C 
HETATM   11  C   UNK N   1      37.332 -22.995 -73.511  0.00  0.00    -0.107 C 
BRANCH  11  12
HETATM   12  C   UNK N   1      37.095 -23.920 -74.628  0.00  0.00     0.094 C 
BRANCH  12  13
HETATM   13  C   UNK N   1      38.056 -23.641 -75.794  0.00  0.00     0.014 C 
BRANCH  13  14
HETATM   14  C   UNK N   1      37.620 -24.330 -77.102  0.00  0.00     0.027 C 
BRANCH  14  15
HETATM   15  C   UNK N   1      38.310 -23.723 -78.325  0.00  0.00     0.164 C 
BRANCH  15  16
HETATM   16  O   UNK N   1      37.425 -22.845 -78.964  0.00  0.00    -0.401 OA
HETATM   17  H   UNK N   1      36.890 -23.398 -79.592  0.00  0.00     0.209 HD
ENDBRANCH  15  16
ENDBRANCH  14  15
ENDBRANCH  13  14
ENDBRANCH  12  13
ENDBRANCH  11  12
ENDBRANCH   1  10
TORSDOF 12
ENDMDL
MODEL 9
REMARK VINA RESULT:      -5.7      2.719      6.156
REMARK  12 active torsions:
REMARK  status: ('A' for Active; 'I' for Inactive)
REMARK    1  A    between atoms: O_1  and  C_14 
REMARK    2  A    between atoms: C_2  and  C_3 
REMARK    3  A    between atoms: C_2  and  C_6 
REMARK    4  A    between atoms: C_3  and  C_8 
REMARK    5  A    between atoms: C_4  and  C_5 
REMARK    6  A    between atoms: C_4  and  C_10 
REMARK    7  A    between atoms: C_5  and  C_11 
REMARK    8  A    between atoms: C_7  and  C_9 
REMARK    9  A    between atoms: C_7  and  C_12 
REMARK   10  A    between atoms: C_9  and  C_14 
REMARK   11  A    between atoms: C_11  and  C_15 
REMARK   12  A    between atoms: C_12  and  C_16 
ROOT
HETATM    1  C   UNK N   1      34.907 -21.742 -73.756  0.00  0.00     0.094 C 
ENDROOT
BRANCH   1   2
HETATM    2  C   UNK N   1      35.634 -20.993 -72.629  0.00  0.00     0.016 C 
BRANCH   2   3
HETATM    3  C   UNK N   1      34.809 -20.920 -71.332  0.00  0.00     0.027 C 
BRANCH   3   4
HETATM    4  C   UNK N   1      33.358 -20.620 -71.632  0.00  0.00    -0.031 C 
HETATM    5  C   UNK N   1      32.930 -19.357 -71.857  0.00  0.00    -0.031 C 
BRANCH   5   6
HETATM    6  C   UNK N   1      31.495 -19.004 -72.192  0.00  0.00     0.027 C 
BRANCH   6   7
HETATM    7  C   UNK N   1      31.315 -18.305 -73.559  0.00  0.00     0.003 C 
BRANCH   7   8
HETATM    8  C   UNK N   1      29.851 -18.287 -74.024  0.00  0.00    -0.004 C 
HETATM    9  C   UNK N   1      29.715 -18.022 -75.524  0.00  0.00     0.005 C 
ENDBRANCH   7   8
ENDBRANCH   6   7
ENDBRANCH   5   6
ENDBRANCH   3   4
ENDBRANCH   2   3
ENDBRANCH   1   2
BRANCH   1  10
HETATM   10  C   UNK N   1      34.437 -20.813 -74.792  0.00  0.00    -0.107 C 
HETATM   11  C   UNK N   1      34.032 -20.017 -75.603  0.00  0.00    -0.107 C 
BRANCH  11  12
HETATM   12  C   UNK N   1      33.456 -19.076 -76.574  0.00  0.00     0.094 C 
BRANCH  12  13
HETATM   13  C   UNK N   1      32.507 -19.793 -77.547  0.00  0.00     0.014 C 
BRANCH  13  14
HETATM   14  C   UNK N   1      32.849 -19.515 -79.024  0.00  0.00     0.027 C 
BRANCH  14  15
HETATM   15  C   UNK N   1      33.823 -20.551 -79.589  0.00  0.00     0.164 C 
BRANCH  15  16
HETATM   16  O   UNK N   1      33.192 -21.261 -80.619  0.00  0.00    -0.401 OA
HETATM   17  H   UNK N   1      32.351 -21.623 -80.234  0.00  0.00     0.209 HD
ENDBRANCH  15  16
ENDBRANCH  14  15
ENDBRANCH  13  14
ENDBRANCH  12  13
ENDBRANCH  11  12
ENDBRANCH   1  10
TORSDOF 12
ENDMDL
