MODEL 1
REMARK VINA RESULT:      -6.3      0.000      0.000
REMARK  0 active torsions:
REMARK  status: ('A' for Active; 'I' for Inactive)
ROOT
HETATM    1  C   UNK N   1      31.060 -19.678 -80.607  0.00  0.00    -0.030 C 
HETATM    2  C   UNK N   1      29.754 -18.828 -80.644  0.00  0.00     0.017 C 
HETATM    3  C   UNK N   1      29.562 -17.832 -79.477  0.00  0.00     0.034 C 
HETATM    4  C   UNK N   1      32.281 -18.749 -80.789  0.00  0.00     0.019 C 
HETATM    5  C   UNK N   1      31.053 -20.627 -81.828  0.00  0.00     0.019 C 
HETATM    6  C   UNK N   1      31.035 -20.582 -79.366  0.00  0.00    -0.022 C 
HETATM    7  C   UNK N   1      29.239 -18.486 -78.137  0.00  0.00    -0.087 C 
HETATM    8  C   UNK N   1      31.871 -20.703 -78.304  0.00  0.00    -0.026 C 
HETATM    9  C   UNK N   1      33.127 -19.945 -77.970  0.00  0.00     0.060 C 
HETATM   10  C   UNK N   1      30.014 -18.377 -77.030  0.00  0.00    -0.021 C 
HETATM   11  C   UNK N   1      31.333 -17.648 -76.913  0.00  0.00     0.054 C 
HETATM   12  C   UNK N   1      33.107 -19.457 -76.534  0.00  0.00    -0.084 C 
HETATM   13  C   UNK N   1      27.931 -19.239 -78.028  0.00  0.00     0.043 C 
HETATM   14  C   UNK N   1      32.321 -18.441 -76.092  0.00  0.00    -0.020 C 
HETATM   15  C   UNK N   1      34.045 -20.128 -75.562  0.00  0.00     0.043 C 
ENDROOT
TORSDOF 0
ENDMDL
MODEL 2
REMARK VINA RESULT:      -6.2      1.284      4.854
REMARK  0 active torsions:
REMARK  status: ('A' for Active; 'I' for Inactive)
ROOT
HETATM    1  C   UNK N   1      31.112 -17.593 -77.120  0.00  0.00    -0.030 C 
HETATM    2  C   UNK N   1      32.507 -17.692 -76.431  0.00  0.00     0.017 C 
HETATM    3  C   UNK N   1      33.661 -18.222 -77.313  0.00  0.00     0.034 C 
HETATM    4  C   UNK N   1      31.166 -16.525 -78.235  0.00  0.00     0.019 C 
HETATM    5  C   UNK N   1      30.094 -17.078 -76.078  0.00  0.00     0.019 C 
HETATM    6  C   UNK N   1      30.646 -19.003 -77.510  0.00  0.00    -0.022 C 
HETATM    7  C   UNK N   1      33.580 -19.712 -77.627  0.00  0.00    -0.087 C 
HETATM    8  C   UNK N   1      30.311 -19.559 -78.702  0.00  0.00    -0.026 C 
HETATM    9  C   UNK N   1      30.313 -18.964 -80.084  0.00  0.00     0.060 C 
HETATM   10  C   UNK N   1      33.475 -20.221 -78.879  0.00  0.00    -0.021 C 
HETATM   11  C   UNK N   1      33.374 -19.443 -80.171  0.00  0.00     0.054 C 
HETATM   12  C   UNK N   1      31.016 -19.874 -81.072  0.00  0.00    -0.084 C 
HETATM   13  C   UNK N   1      33.702 -20.675 -76.466  0.00  0.00     0.043 C 
HETATM   14  C   UNK N   1      32.360 -20.063 -81.101  0.00  0.00    -0.020 C 
HETATM   15  C   UNK N   1      30.158 -20.576 -82.096  0.00  0.00     0.043 C 
ENDROOT
TORSDOF 0
ENDMDL
MODEL 3
REMARK VINA RESULT:      -6.1      1.476      2.256
REMARK  0 active torsions:
REMARK  status: ('A' for Active; 'I' for Inactive)
ROOT
HETATM    1  C   UNK N   1      33.173 -20.018 -80.952  0.00  0.00    -0.030 C 
HETATM    2  C   UNK N   1      32.178 -19.510 -82.039  0.00  0.00     0.017 C 
HETATM    3  C   UNK N   1      31.315 -18.288 -81.647  0.00  0.00     0.034 C 
HETATM    4  C   UNK N   1      34.254 -18.943 -80.705  0.00  0.00     0.019 C 
HETATM    5  C   UNK N   1      33.913 -21.254 -81.515  0.00  0.00     0.019 C 
HETATM    6  C   UNK N   1      32.377 -20.517 -79.737  0.00  0.00    -0.022 C 
HETATM    7  C   UNK N   1      30.227 -18.587 -80.621  0.00  0.00    -0.087 C 
HETATM    8  C   UNK N   1      32.376 -20.151 -78.431  0.00  0.00    -0.026 C 
HETATM    9  C   UNK N   1      33.164 -19.081 -77.724  0.00  0.00     0.060 C 
HETATM   10  C   UNK N   1      30.152 -18.007 -79.399  0.00  0.00    -0.021 C 
HETATM   11  C   UNK N   1      31.124 -17.013 -78.804  0.00  0.00     0.054 C 
HETATM   12  C   UNK N   1      32.265 -18.222 -76.856  0.00  0.00    -0.084 C 
HETATM   13  C   UNK N   1      29.124 -19.538 -81.036  0.00  0.00     0.043 C 
HETATM   14  C   UNK N   1      31.385 -17.313 -77.348  0.00  0.00    -0.020 C 
HETATM   15  C   UNK N   1      32.396 -18.375 -75.361  0.00  0.00     0.043 C 
ENDROOT
TORSDOF 0
ENDMDL
MODEL 4
REMARK VINA RESULT:      -6.0      5.659      7.824
REMARK  0 active torsions:
REMARK  status: ('A' for Active; 'I' for Inactive)
ROOT
HETATM    1  C   UNK N   1      34.025 -21.352 -83.438  0.00  0.00    -0.030 C 
HETATM    2  C   UNK N   1      33.971 -20.699 -82.023  0.00  0.00     0.017 C 
HETATM    3  C   UNK N   1      35.336 -20.446 -81.343  0.00  0.00     0.034 C 
HETATM    4  C   UNK N   1      34.689 -20.372 -84.430  0.00  0.00     0.019 C 
HETATM    5  C   UNK N   1      32.575 -21.552 -83.933  0.00  0.00     0.019 C 
HETATM    6  C   UNK N   1      34.631 -22.758 -83.317  0.00  0.00    -0.022 C 
HETATM    7  C   UNK N   1      36.044 -21.709 -80.862  0.00  0.00    -0.087 C 
HETATM    8  C   UNK N   1      35.721 -23.337 -83.880  0.00  0.00    -0.026 C 
HETATM    9  C   UNK N   1      36.746 -22.762 -84.820  0.00  0.00     0.060 C 
HETATM   10  C   UNK N   1      37.258 -22.117 -81.305  0.00  0.00    -0.021 C 
HETATM   11  C   UNK N   1      38.110 -21.453 -82.363  0.00  0.00     0.054 C 
HETATM   12  C   UNK N   1      38.155 -23.069 -84.350  0.00  0.00    -0.084 C 
HETATM   13  C   UNK N   1      35.372 -22.507 -79.765  0.00  0.00     0.043 C 
HETATM   14  C   UNK N   1      38.738 -22.477 -83.276  0.00  0.00    -0.020 C 
HETATM   15  C   UNK N   1      38.950 -24.068 -85.153  0.00  0.00     0.043 C 
ENDROOT
TORSDOF 0
ENDMDL
MODEL 5
REMARK VINA RESULT:      -5.9      5.874      8.118
REMARK  0 active torsions:
REMARK  status: ('A' for Active; 'I' for Inactive)
ROOT
HETATM    1  C   UNK N   1      35.068 -20.773 -81.666  0.00  0.00    -0.030 C 
HETATM    2  C   UNK N   1      34.011 -21.235 -82.715  0.00  0.00     0.017 C 
HETATM    3  C   UNK N   1      34.281 -22.598 -83.392  0.00  0.00     0.034 C 
HETATM    4  C   UNK N   1      35.041 -21.731 -80.456  0.00  0.00     0.019 C 
HETATM    5  C   UNK N   1      34.644 -19.387 -81.130  0.00  0.00     0.019 C 
HETATM    6  C   UNK N   1      36.415 -20.561 -82.374  0.00  0.00    -0.022 C 
HETATM    7  C   UNK N   1      35.436 -22.589 -84.388  0.00  0.00    -0.087 C 
HETATM    8  C   UNK N   1      37.641 -21.112 -82.192  0.00  0.00    -0.026 C 
HETATM    9  C   UNK N   1      38.094 -22.169 -81.221  0.00  0.00     0.060 C 
HETATM   10  C   UNK N   1      36.552 -23.348 -84.265  0.00  0.00    -0.021 C 
HETATM   11  C   UNK N   1      36.890 -24.291 -83.133  0.00  0.00     0.054 C 
HETATM   12  C   UNK N   1      38.893 -23.251 -81.922  0.00  0.00    -0.084 C 
HETATM   13  C   UNK N   1      35.281 -21.731 -85.625  0.00  0.00     0.043 C 
HETATM   14  C   UNK N   1      38.345 -24.178 -82.748  0.00  0.00    -0.020 C 
HETATM   15  C   UNK N   1      40.375 -23.304 -81.646  0.00  0.00     0.043 C 
ENDROOT
TORSDOF 0
ENDMDL
MODEL 6
REMARK VINA RESULT:      -5.9      8.018     10.358
REMARK  0 active torsions:
REMARK  status: ('A' for Active; 'I' for Inactive)
ROOT
HETATM    1  C   UNK N   1      41.272 -22.750 -81.011  0.00  0.00    -0.030 C 
HETATM    2  C   UNK N   1      41.222 -21.500 -80.081  0.00  0.00     0.017 C 
HETATM    3  C   UNK N   1      39.851 -20.795 -79.968  0.00  0.00     0.034 C 
HETATM    4  C   UNK N   1      40.397 -23.871 -80.408  0.00  0.00     0.019 C 
HETATM    5  C   UNK N   1      42.721 -23.289 -81.018  0.00  0.00     0.019 C 
HETATM    6  C   UNK N   1      40.974 -22.314 -82.453  0.00  0.00    -0.022 C 
HETATM    7  C   UNK N   1      39.431 -20.029 -81.218  0.00  0.00    -0.087 C 
HETATM    8  C   UNK N   1      40.015 -22.679 -83.339  0.00  0.00    -0.026 C 
HETATM    9  C   UNK N   1      38.871 -23.646 -83.186  0.00  0.00     0.060 C 
HETATM   10  C   UNK N   1      38.318 -20.302 -81.941  0.00  0.00    -0.021 C 
HETATM   11  C   UNK N   1      37.323 -21.413 -81.692  0.00  0.00     0.054 C 
HETATM   12  C   UNK N   1      37.568 -23.033 -83.662  0.00  0.00    -0.084 C 
HETATM   13  C   UNK N   1      40.279 -18.842 -81.623  0.00  0.00     0.043 C 
HETATM   14  C   UNK N   1      36.899 -22.063 -82.987  0.00  0.00    -0.020 C 
HETATM   15  C   UNK N   1      36.979 -23.569 -84.943  0.00  0.00     0.043 C 
ENDROOT
TORSDOF 0
ENDMDL
MODEL 7
REMARK VINA RESULT:      -5.9      7.042      9.360
REMARK  0 active torsions:
REMARK  status: ('A' for Active; 'I' for Inactive)
ROOT
HETATM    1  C   UNK N   1      38.946 -24.133 -83.617  0.00  0.00    -0.030 C 
HETATM    2  C   UNK N   1      39.981 -23.566 -82.598  0.00  0.00     0.017 C 
HETATM    3  C   UNK N   1      39.391 -22.812 -81.384  0.00  0.00     0.034 C 
HETATM    4  C   UNK N   1      38.114 -25.243 -82.938  0.00  0.00     0.019 C 
HETATM    5  C   UNK N   1      39.724 -24.817 -84.765  0.00  0.00     0.019 C 
HETATM    6  C   UNK N   1      38.183 -22.964 -84.258  0.00  0.00    -0.022 C 
HETATM    7  C   UNK N   1      38.796 -21.448 -81.718  0.00  0.00    -0.087 C 
HETATM    8  C   UNK N   1      36.865 -22.648 -84.305  0.00  0.00    -0.026 C 
HETATM    9  C   UNK N   1      35.678 -23.350 -83.701  0.00  0.00     0.060 C 
HETATM   10  C   UNK N   1      37.497 -21.116 -81.524  0.00  0.00    -0.021 C 
HETATM   11  C   UNK N   1      36.398 -22.013 -80.998  0.00  0.00     0.054 C 
HETATM   12  C   UNK N   1      34.786 -22.375 -82.955  0.00  0.00    -0.084 C 
HETATM   13  C   UNK N   1      39.743 -20.382 -82.227  0.00  0.00     0.043 C 
HETATM   14  C   UNK N   1      35.116 -21.808 -81.767  0.00  0.00    -0.020 C 
HETATM   15  C   UNK N   1      33.446 -22.056 -83.570  0.00  0.00     0.043 C 
ENDROOT
TORSDOF 0
ENDMDL
MODEL 8
REMARK VINA RESULT:      -5.8      6.801      9.590
REMARK  0 active torsions:
REMARK  status: ('A' for Active; 'I' for Inactive)
ROOT
HETATM    1  C   UNK N   1      38.794 -22.118 -81.566  0.00  0.00    -0.030 C 
HETATM    2  C   UNK N   1      39.678 -23.223 -82.221  0.00  0.00     0.017 C 
HETATM    3  C   UNK N   1      39.305 -23.616 -83.669  0.00  0.00     0.034 C 
HETATM    4  C   UNK N   1      39.006 -20.783 -82.313  0.00  0.00     0.019 C 
HETATM    5  C   UNK N   1      39.298 -21.889 -80.123  0.00  0.00     0.019 C 
HETATM    6  C   UNK N   1      37.355 -22.638 -81.437  0.00  0.00    -0.022 C 
HETATM    7  C   UNK N   1      38.010 -24.412 -83.793  0.00  0.00    -0.087 C 
HETATM    8  C   UNK N   1      36.171 -22.184 -81.917  0.00  0.00    -0.026 C 
HETATM    9  C   UNK N   1      35.872 -20.993 -82.788  0.00  0.00     0.060 C 
HETATM   10  C   UNK N   1      36.925 -23.998 -84.491  0.00  0.00    -0.021 C 
HETATM   11  C   UNK N   1      36.764 -22.687 -85.227  0.00  0.00     0.054 C 
HETATM   12  C   UNK N   1      34.973 -21.376 -83.949  0.00  0.00    -0.084 C 
HETATM   13  C   UNK N   1      37.974 -25.784 -83.153  0.00  0.00     0.043 C 
HETATM   14  C   UNK N   1      35.386 -22.110 -85.014  0.00  0.00    -0.020 C 
HETATM   15  C   UNK N   1      33.551 -20.874 -83.917  0.00  0.00     0.043 C 
ENDROOT
TORSDOF 0
ENDMDL
MODEL 9
REMARK VINA RESULT:      -5.8      1.540      3.693
REMARK  0 active torsions:
REMARK  status: ('A' for Active; 'I' for Inactive)
ROOT
HETATM    1  C   UNK N   1      30.138 -19.345 -81.093  0.00  0.00    -0.030 C 
HETATM    2  C   UNK N   1      31.024 -20.015 -82.186  0.00  0.00     0.017 C 
HETATM    3  C   UNK N   1      32.301 -20.725 -81.681  0.00  0.00     0.034 C 
HETATM    4  C   UNK N   1      29.544 -20.436 -80.175  0.00  0.00     0.019 C 
HETATM    5  C   UNK N   1      28.938 -18.667 -81.792  0.00  0.00     0.019 C 
HETATM    6  C   UNK N   1      30.936 -18.214 -80.427  0.00  0.00    -0.022 C 
HETATM    7  C   UNK N   1      33.400 -19.780 -81.203  0.00  0.00    -0.087 C 
HETATM    8  C   UNK N   1      31.303 -17.988 -79.140  0.00  0.00    -0.026 C 
HETATM    9  C   UNK N   1      31.063 -18.814 -77.905  0.00  0.00     0.060 C 
HETATM   10  C   UNK N   1      33.891 -19.761 -79.940  0.00  0.00    -0.021 C 
HETATM   11  C   UNK N   1      33.436 -20.610 -78.775  0.00  0.00     0.054 C 
HETATM   12  C   UNK N   1      32.343 -18.997 -77.112  0.00  0.00    -0.084 C 
HETATM   13  C   UNK N   1      34.025 -18.864 -82.233  0.00  0.00     0.043 C 
HETATM   14  C   UNK N   1      33.367 -19.797 -77.505  0.00  0.00    -0.020 C 
HETATM   15  C   UNK N   1      32.451 -18.266 -75.796  0.00  0.00     0.043 C 
ENDROOT
TORSDOF 0
ENDMDL
