MODEL 1
REMARK VINA RESULT:      -6.6      0.000      0.000
REMARK  6 active torsions:
REMARK  status: ('A' for Active; 'I' for Inactive)
REMARK    1  A    between atoms: N_3  and  C_5 
REMARK    2  A    between atoms: C_4  and  C_8 
REMARK    3  A    between atoms: C_8  and  C_11 
REMARK    4  A    between atoms: C_11  and  C_12 
REMARK    5  A    between atoms: C_12  and  C_13 
REMARK    6  A    between atoms: C_13  and  C_14 
ROOT
HETATM    1  C   UNK N   1      35.023 -21.336 -72.011  0.00  0.00     0.014 C 
HETATM    2  C   UNK N   1      35.628 -20.554 -73.215  0.00  0.00     0.160 C 
HETATM    3  C   UNK N   1      35.753 -20.943 -70.700  0.00  0.00     0.007 C 
HETATM    4  C   UNK N   1      37.162 -20.723 -73.277  0.00  0.00     0.032 C 
HETATM    5  C   UNK N   1      37.260 -21.153 -70.810  0.00  0.00     0.001 C 
HETATM    6  C   UNK N   1      37.826 -20.319 -71.957  0.00  0.00     0.002 C 
ENDROOT
BRANCH   1   7
HETATM    7  C   UNK N   1      33.500 -21.065 -71.893  0.00  0.00     0.007 C 
BRANCH   7   8
HETATM    8  C   UNK N   1      33.192 -19.600 -71.539  0.00  0.00     0.000 C 
BRANCH   8   9
HETATM    9  C   UNK N   1      31.811 -19.166 -72.025  0.00  0.00     0.000 C 
BRANCH   9  10
HETATM   10  C   UNK N   1      31.957 -18.186 -73.197  0.00  0.00    -0.000 C 
BRANCH  10  11
HETATM   11  C   UNK N   1      30.736 -18.241 -74.118  0.00  0.00    -0.005 C 
HETATM   12  C   UNK N   1      29.470 -18.584 -73.337  0.00  0.00     0.005 C 
ENDBRANCH  10  11
ENDBRANCH   9  10
ENDBRANCH   8   9
ENDBRANCH   7   8
ENDBRANCH   1   7
BRANCH   2  13
HETATM   13  N   UNK N   1      35.050 -21.009 -74.468  0.00  0.00    -0.150 N 
HETATM   14  O   UNK N   1      34.155 -20.276 -75.089  0.00  0.00    -0.536 OA
HETATM   15  O   UNK N   1      35.400 -22.049 -74.950  0.00  0.00    -0.536 OA
ENDBRANCH   2  13
TORSDOF 6
ENDMDL
MODEL 2
REMARK VINA RESULT:      -6.4      1.818      5.766
REMARK  6 active torsions:
REMARK  status: ('A' for Active; 'I' for Inactive)
REMARK    1  A    between atoms: N_3  and  C_5 
REMARK    2  A    between atoms: C_4  and  C_8 
REMARK    3  A    between atoms: C_8  and  C_11 
REMARK    4  A    between atoms: C_11  and  C_12 
REMARK    5  A    between atoms: C_12  and  C_13 
REMARK    6  A    between atoms: C_13  and  C_14 
ROOT
HETATM    1  C   UNK N   1      32.018 -18.361 -74.312  0.00  0.00     0.014 C 
HETATM    2  C   UNK N   1      31.966 -18.813 -75.802  0.00  0.00     0.160 C 
HETATM    3  C   UNK N   1      30.592 -18.368 -73.703  0.00  0.00     0.007 C 
HETATM    4  C   UNK N   1      30.939 -17.983 -76.603  0.00  0.00     0.032 C 
HETATM    5  C   UNK N   1      29.627 -17.514 -74.520  0.00  0.00     0.001 C 
HETATM    6  C   UNK N   1      29.552 -18.030 -75.955  0.00  0.00     0.002 C 
ENDROOT
BRANCH   1   7
HETATM    7  C   UNK N   1      32.967 -19.277 -73.495  0.00  0.00     0.007 C 
BRANCH   7   8
HETATM    8  C   UNK N   1      32.612 -19.304 -71.999  0.00  0.00     0.000 C 
BRANCH   8   9
HETATM    9  C   UNK N   1      33.713 -19.940 -71.154  0.00  0.00     0.000 C 
BRANCH   9  10
HETATM   10  C   UNK N   1      34.706 -20.678 -72.063  0.00  0.00    -0.000 C 
BRANCH  10  11
HETATM   11  C   UNK N   1      35.847 -21.292 -71.250  0.00  0.00    -0.005 C 
HETATM   12  C   UNK N   1      37.158 -20.547 -71.486  0.00  0.00     0.005 C 
ENDBRANCH  10  11
ENDBRANCH   9  10
ENDBRANCH   8   9
ENDBRANCH   7   8
ENDBRANCH   1   7
BRANCH   2  13
HETATM   13  N   UNK N   1      33.272 -18.682 -76.426  0.00  0.00    -0.150 N 
HETATM   14  O   UNK N   1      34.107 -19.695 -76.433  0.00  0.00    -0.536 OA
HETATM   15  O   UNK N   1      33.587 -17.653 -76.953  0.00  0.00    -0.536 OA
ENDBRANCH   2  13
TORSDOF 6
ENDMDL
MODEL 3
REMARK VINA RESULT:      -6.2      2.005      5.507
REMARK  6 active torsions:
REMARK  status: ('A' for Active; 'I' for Inactive)
REMARK    1  A    between atoms: N_3  and  C_5 
REMARK    2  A    between atoms: C_4  and  C_8 
REMARK    3  A    between atoms: C_8  and  C_11 
REMARK    4  A    between atoms: C_11  and  C_12 
REMARK    5  A    between atoms: C_12  and  C_13 
REMARK    6  A    between atoms: C_13  and  C_14 
ROOT
HETATM    1  C   UNK N   1      33.592 -19.618 -74.561  0.00  0.00     0.014 C 
HETATM    2  C   UNK N   1      32.692 -19.433 -75.820  0.00  0.00     0.160 C 
HETATM    3  C   UNK N   1      32.732 -19.526 -73.274  0.00  0.00     0.007 C 
HETATM    4  C   UNK N   1      31.850 -18.142 -75.720  0.00  0.00     0.032 C 
HETATM    5  C   UNK N   1      31.941 -18.222 -73.217  0.00  0.00     0.001 C 
HETATM    6  C   UNK N   1      31.022 -18.110 -74.432  0.00  0.00     0.002 C 
ENDROOT
BRANCH   1   7
HETATM    7  C   UNK N   1      34.344 -20.973 -74.621  0.00  0.00     0.007 C 
BRANCH   7   8
HETATM    8  C   UNK N   1      35.064 -21.303 -73.303  0.00  0.00     0.000 C 
BRANCH   8   9
HETATM    9  C   UNK N   1      36.445 -21.914 -73.534  0.00  0.00     0.000 C 
BRANCH   9  10
HETATM   10  C   UNK N   1      37.034 -22.389 -72.200  0.00  0.00    -0.000 C 
BRANCH  10  11
HETATM   11  C   UNK N   1      36.905 -21.309 -71.124  0.00  0.00    -0.005 C 
HETATM   12  C   UNK N   1      38.121 -20.386 -71.119  0.00  0.00     0.005 C 
ENDBRANCH  10  11
ENDBRANCH   9  10
ENDBRANCH   8   9
ENDBRANCH   7   8
ENDBRANCH   1   7
BRANCH   2  13
HETATM   13  N   UNK N   1      33.500 -19.380 -77.027  0.00  0.00    -0.150 N 
HETATM   14  O   UNK N   1      34.336 -18.386 -77.220  0.00  0.00    -0.536 OA
HETATM   15  O   UNK N   1      33.419 -20.251 -77.844  0.00  0.00    -0.536 OA
ENDBRANCH   2  13
TORSDOF 6
ENDMDL
MODEL 4
REMARK VINA RESULT:      -6.2      4.410      6.374
REMARK  6 active torsions:
REMARK  status: ('A' for Active; 'I' for Inactive)
REMARK    1  A    between atoms: N_3  and  C_5 
REMARK    2  A    between atoms: C_4  and  C_8 
REMARK    3  A    between atoms: C_8  and  C_11 
REMARK    4  A    between atoms: C_11  and  C_12 
REMARK    5  A    between atoms: C_12  and  C_13 
REMARK    6  A    between atoms: C_13  and  C_14 
ROOT
HETATM    1  C   UNK N   1      37.608 -24.587 -75.439  0.00  0.00     0.014 C 
HETATM    2  C   UNK N   1      38.593 -24.359 -76.625  0.00  0.00     0.160 C 
HETATM    3  C   UNK N   1      38.178 -25.656 -74.471  0.00  0.00     0.007 C 
HETATM    4  C   UNK N   1      38.958 -25.694 -77.312  0.00  0.00     0.032 C 
HETATM    5  C   UNK N   1      38.498 -26.959 -75.198  0.00  0.00     0.001 C 
HETATM    6  C   UNK N   1      39.517 -26.708 -76.308  0.00  0.00     0.002 C 
ENDROOT
BRANCH   1   7
HETATM    7  C   UNK N   1      37.341 -23.255 -74.688  0.00  0.00     0.007 C 
BRANCH   7   8
HETATM    8  C   UNK N   1      37.564 -23.383 -73.172  0.00  0.00     0.000 C 
BRANCH   8   9
HETATM    9  C   UNK N   1      36.789 -22.330 -72.382  0.00  0.00     0.000 C 
BRANCH   9  10
HETATM   10  C   UNK N   1      36.867 -20.978 -73.104  0.00  0.00    -0.000 C 
BRANCH  10  11
HETATM   11  C   UNK N   1      37.881 -20.051 -72.432  0.00  0.00    -0.005 C 
HETATM   12  C   UNK N   1      38.121 -20.454 -70.979  0.00  0.00     0.005 C 
ENDBRANCH  10  11
ENDBRANCH   9  10
ENDBRANCH   8   9
ENDBRANCH   7   8
ENDBRANCH   1   7
BRANCH   2  13
HETATM   13  N   UNK N   1      38.014 -23.462 -77.611  0.00  0.00    -0.150 N 
HETATM   14  O   UNK N   1      36.710 -23.366 -77.733  0.00  0.00    -0.536 OA
HETATM   15  O   UNK N   1      38.723 -22.793 -78.307  0.00  0.00    -0.536 OA
ENDBRANCH   2  13
TORSDOF 6
ENDMDL
MODEL 5
REMARK VINA RESULT:      -6.2      4.981      6.926
REMARK  6 active torsions:
REMARK  status: ('A' for Active; 'I' for Inactive)
REMARK    1  A    between atoms: N_3  and  C_5 
REMARK    2  A    between atoms: C_4  and  C_8 
REMARK    3  A    between atoms: C_8  and  C_11 
REMARK    4  A    between atoms: C_11  and  C_12 
REMARK    5  A    between atoms: C_12  and  C_13 
REMARK    6  A    between atoms: C_13  and  C_14 
ROOT
HETATM    1  C   UNK N   1      38.436 -24.289 -75.166  0.00  0.00     0.014 C 
HETATM    2  C   UNK N   1      38.655 -25.830 -75.251  0.00  0.00     0.160 C 
HETATM    3  C   UNK N   1      37.833 -23.764 -76.495  0.00  0.00     0.007 C 
HETATM    4  C   UNK N   1      39.473 -26.211 -76.504  0.00  0.00     0.032 C 
HETATM    5  C   UNK N   1      38.694 -24.148 -77.695  0.00  0.00     0.001 C 
HETATM    6  C   UNK N   1      38.828 -25.667 -77.783  0.00  0.00     0.002 C 
ENDROOT
BRANCH   1   7
HETATM    7  C   UNK N   1      37.517 -23.933 -73.968  0.00  0.00     0.007 C 
BRANCH   7   8
HETATM    8  C   UNK N   1      36.561 -22.771 -74.289  0.00  0.00     0.000 C 
BRANCH   8   9
HETATM    9  C   UNK N   1      36.686 -21.626 -73.286  0.00  0.00     0.000 C 
BRANCH   9  10
HETATM   10  C   UNK N   1      36.592 -22.173 -71.856  0.00  0.00    -0.000 C 
BRANCH  10  11
HETATM   11  C   UNK N   1      37.070 -21.138 -70.836  0.00  0.00    -0.005 C 
HETATM   12  C   UNK N   1      38.323 -20.418 -71.326  0.00  0.00     0.005 C 
ENDBRANCH  10  11
ENDBRANCH   9  10
ENDBRANCH   8   9
ENDBRANCH   7   8
ENDBRANCH   1   7
BRANCH   2  13
HETATM   13  N   UNK N   1      39.344 -26.318 -74.068  0.00  0.00    -0.150 N 
HETATM   14  O   UNK N   1      38.770 -27.202 -73.285  0.00  0.00    -0.536 OA
HETATM   15  O   UNK N   1      40.448 -25.929 -73.811  0.00  0.00    -0.536 OA
ENDBRANCH   2  13
TORSDOF 6
ENDMDL
MODEL 6
REMARK VINA RESULT:      -5.9      3.080      6.131
REMARK  6 active torsions:
REMARK  status: ('A' for Active; 'I' for Inactive)
REMARK    1  A    between atoms: N_3  and  C_5 
REMARK    2  A    between atoms: C_4  and  C_8 
REMARK    3  A    between atoms: C_8  and  C_11 
REMARK    4  A    between atoms: C_11  and  C_12 
REMARK    5  A    between atoms: C_12  and  C_13 
REMARK    6  A    between atoms: C_13  and  C_14 
ROOT
HETATM    1  C   UNK N   1      32.421 -18.189 -75.790  0.00  0.00     0.014 C 
HETATM    2  C   UNK N   1      31.167 -18.377 -76.696  0.00  0.00     0.160 C 
HETATM    3  C   UNK N   1      32.088 -18.590 -74.330  0.00  0.00     0.007 C 
HETATM    4  C   UNK N   1      29.940 -17.644 -76.111  0.00  0.00     0.032 C 
HETATM    5  C   UNK N   1      30.884 -17.819 -73.796  0.00  0.00     0.001 C 
HETATM    6  C   UNK N   1      29.660 -18.082 -74.670  0.00  0.00     0.002 C 
ENDROOT
BRANCH   1   7
HETATM    7  C   UNK N   1      33.614 -19.023 -76.328  0.00  0.00     0.007 C 
BRANCH   7   8
HETATM    8  C   UNK N   1      33.642 -20.448 -75.748  0.00  0.00     0.000 C 
BRANCH   8   9
HETATM    9  C   UNK N   1      34.818 -20.663 -74.798  0.00  0.00     0.000 C 
BRANCH   9  10
HETATM   10  C   UNK N   1      34.371 -21.509 -73.599  0.00  0.00    -0.000 C 
BRANCH  10  11
HETATM   11  C   UNK N   1      34.317 -20.670 -72.321  0.00  0.00    -0.005 C 
HETATM   12  C   UNK N   1      35.411 -21.085 -71.341  0.00  0.00     0.005 C 
ENDBRANCH  10  11
ENDBRANCH   9  10
ENDBRANCH   8   9
ENDBRANCH   7   8
ENDBRANCH   1   7
BRANCH   2  13
HETATM   13  N   UNK N   1      31.422 -17.878 -78.037  0.00  0.00    -0.150 N 
HETATM   14  O   UNK N   1      31.479 -16.586 -78.263  0.00  0.00    -0.536 OA
HETATM   15  O   UNK N   1      31.597 -18.644 -78.942  0.00  0.00    -0.536 OA
ENDBRANCH   2  13
TORSDOF 6
ENDMDL
MODEL 7
REMARK VINA RESULT:      -5.9      3.168      6.106
REMARK  6 active torsions:
REMARK  status: ('A' for Active; 'I' for Inactive)
REMARK    1  A    between atoms: N_3  and  C_5 
REMARK    2  A    between atoms: C_4  and  C_8 
REMARK    3  A    between atoms: C_8  and  C_11 
REMARK    4  A    between atoms: C_11  and  C_12 
REMARK    5  A    between atoms: C_12  and  C_13 
REMARK    6  A    between atoms: C_13  and  C_14 
ROOT
HETATM    1  C   UNK N   1      32.219 -18.059 -76.786  0.00  0.00     0.014 C 
HETATM    2  C   UNK N   1      32.171 -19.252 -77.787  0.00  0.00     0.160 C 
HETATM    3  C   UNK N   1      30.910 -17.233 -76.878  0.00  0.00     0.007 C 
HETATM    4  C   UNK N   1      31.835 -18.769 -79.216  0.00  0.00     0.032 C 
HETATM    5  C   UNK N   1      30.641 -16.763 -78.305  0.00  0.00     0.001 C 
HETATM    6  C   UNK N   1      30.533 -17.963 -79.244  0.00  0.00     0.002 C 
ENDROOT
BRANCH   1   7
HETATM    7  C   UNK N   1      32.444 -18.569 -75.338  0.00  0.00     0.007 C 
BRANCH   7   8
HETATM    8  C   UNK N   1      31.429 -17.978 -74.344  0.00  0.00     0.000 C 
BRANCH   8   9
HETATM    9  C   UNK N   1      31.510 -18.642 -72.971  0.00  0.00     0.000 C 
BRANCH   9  10
HETATM   10  C   UNK N   1      32.815 -19.441 -72.856  0.00  0.00    -0.000 C 
BRANCH  10  11
HETATM   11  C   UNK N   1      33.118 -19.797 -71.399  0.00  0.00    -0.005 C 
HETATM   12  C   UNK N   1      32.746 -18.651 -70.462  0.00  0.00     0.005 C 
ENDBRANCH  10  11
ENDBRANCH   9  10
ENDBRANCH   8   9
ENDBRANCH   7   8
ENDBRANCH   1   7
BRANCH   2  13
HETATM   13  N   UNK N   1      33.443 -19.955 -77.812  0.00  0.00    -0.150 N 
HETATM   14  O   UNK N   1      34.052 -20.182 -78.953  0.00  0.00    -0.536 OA
HETATM   15  O   UNK N   1      33.951 -20.317 -76.789  0.00  0.00    -0.536 OA
ENDBRANCH   2  13
TORSDOF 6
ENDMDL
MODEL 8
REMARK VINA RESULT:      -5.7      4.020      6.284
REMARK  6 active torsions:
REMARK  status: ('A' for Active; 'I' for Inactive)
REMARK    1  A    between atoms: N_3  and  C_5 
REMARK    2  A    between atoms: C_4  and  C_8 
REMARK    3  A    between atoms: C_8  and  C_11 
REMARK    4  A    between atoms: C_11  and  C_12 
REMARK    5  A    between atoms: C_12  and  C_13 
REMARK    6  A    between atoms: C_13  and  C_14 
ROOT
HETATM    1  C   UNK N   1      30.901 -17.838 -76.384  0.00  0.00     0.014 C 
HETATM    2  C   UNK N   1      32.370 -18.098 -75.934  0.00  0.00     0.160 C 
HETATM    3  C   UNK N   1      30.084 -17.235 -75.212  0.00  0.00     0.007 C 
HETATM    4  C   UNK N   1      32.417 -18.940 -74.640  0.00  0.00     0.032 C 
HETATM    5  C   UNK N   1      30.147 -18.119 -73.969  0.00  0.00     0.001 C 
HETATM    6  C   UNK N   1      31.596 -18.295 -73.520  0.00  0.00     0.002 C 
ENDROOT
BRANCH   1   7
HETATM    7  C   UNK N   1      30.866 -16.896 -77.617  0.00  0.00     0.007 C 
BRANCH   7   8
HETATM    8  C   UNK N   1      29.968 -17.438 -78.742  0.00  0.00     0.000 C 
BRANCH   8   9
HETATM    9  C   UNK N   1      29.309 -18.764 -78.369  0.00  0.00     0.000 C 
BRANCH   9  10
HETATM   10  C   UNK N   1      27.817 -18.721 -78.723  0.00  0.00    -0.000 C 
BRANCH  10  11
HETATM   11  C   UNK N   1      27.012 -19.672 -77.836  0.00  0.00    -0.005 C 
HETATM   12  C   UNK N   1      26.647 -19.015 -76.508  0.00  0.00     0.005 C 
ENDBRANCH  10  11
ENDBRANCH   9  10
ENDBRANCH   8   9
ENDBRANCH   7   8
ENDBRANCH   1   7
BRANCH   2  13
HETATM   13  N   UNK N   1      33.113 -18.787 -76.975  0.00  0.00    -0.150 N 
HETATM   14  O   UNK N   1      32.635 -19.886 -77.513  0.00  0.00    -0.536 OA
HETATM   15  O   UNK N   1      34.158 -18.348 -77.361  0.00  0.00    -0.536 OA
ENDBRANCH   2  13
TORSDOF 6
ENDMDL
MODEL 9
REMARK VINA RESULT:      -5.7      3.874      5.904
REMARK  6 active torsions:
REMARK  status: ('A' for Active; 'I' for Inactive)
REMARK    1  A    between atoms: N_3  and  C_5 
REMARK    2  A    between atoms: C_4  and  C_8 
REMARK    3  A    between atoms: C_8  and  C_11 
REMARK    4  A    between atoms: C_11  and  C_12 
REMARK    5  A    between atoms: C_12  and  C_13 
REMARK    6  A    between atoms: C_13  and  C_14 
ROOT
HETATM    1  C   UNK N   1      31.601 -18.731 -76.185  0.00  0.00     0.014 C 
HETATM    2  C   UNK N   1      31.591 -17.937 -77.527  0.00  0.00     0.160 C 
HETATM    3  C   UNK N   1      33.022 -19.284 -75.904  0.00  0.00     0.007 C 
HETATM    4  C   UNK N   1      32.174 -18.784 -78.680  0.00  0.00     0.032 C 
HETATM    5  C   UNK N   1      33.537 -20.130 -77.065  0.00  0.00     0.001 C 
HETATM    6  C   UNK N   1      33.577 -19.299 -78.346  0.00  0.00     0.002 C 
ENDROOT
BRANCH   1   7
HETATM    7  C   UNK N   1      31.122 -17.831 -75.015  0.00  0.00     0.007 C 
BRANCH   7   8
HETATM    8  C   UNK N   1      31.910 -18.085 -73.720  0.00  0.00     0.000 C 
BRANCH   8   9
HETATM    9  C   UNK N   1      31.053 -18.742 -72.640  0.00  0.00     0.000 C 
BRANCH   9  10
HETATM   10  C   UNK N   1      31.955 -19.429 -71.606  0.00  0.00    -0.000 C 
BRANCH  10  11
HETATM   11  C   UNK N   1      33.240 -19.948 -72.253  0.00  0.00    -0.005 C 
HETATM   12  C   UNK N   1      34.174 -20.560 -71.212  0.00  0.00     0.005 C 
ENDBRANCH  10  11
ENDBRANCH   9  10
ENDBRANCH   8   9
ENDBRANCH   7   8
ENDBRANCH   1   7
BRANCH   2  13
HETATM   13  N   UNK N   1      30.241 -17.529 -77.874  0.00  0.00    -0.150 N 
HETATM   14  O   UNK N   1      29.238 -18.364 -77.725  0.00  0.00    -0.536 OA
HETATM   15  O   UNK N   1      30.032 -16.422 -78.282  0.00  0.00    -0.536 OA
ENDBRANCH   2  13
TORSDOF 6
ENDMDL
