MODEL 1
REMARK VINA RESULT:      -7.4      0.000      0.000
REMARK  4 active torsions:
REMARK  status: ('A' for Active; 'I' for Inactive)
REMARK    1  A    between atoms: O_1  and  C_11 
REMARK    2  A    between atoms: C_3  and  C_8 
REMARK    3  A    between atoms: C_6  and  C_11 
REMARK    4  A    between atoms: C_8  and  C_13 
ROOT
HETATM    1  C   UNK N   1      38.903 -25.895 -74.292  0.00  0.00    -0.022 C 
HETATM    2  C   UNK N   1      37.116 -24.113 -74.643  0.00  0.00    -0.006 C 
HETATM    3  C   UNK N   1      38.321 -24.531 -73.815  0.00  0.00     0.018 C 
HETATM    4  C   UNK N   1      37.586 -23.905 -76.095  0.00  0.00     0.039 C 
HETATM    5  C   UNK N   1      39.075 -25.939 -75.828  0.00  0.00    -0.047 C 
HETATM    6  C   UNK N   1      38.493 -24.995 -76.641  0.00  0.00    -0.078 C 
HETATM    7  C   UNK N   1      37.997 -27.069 -73.852  0.00  0.00     0.019 C 
HETATM    8  C   UNK N   1      40.274 -26.032 -73.580  0.00  0.00     0.019 C 
HETATM    9  C   UNK N   1      38.697 -24.962 -78.143  0.00  0.00     0.044 C 
ENDROOT
BRANCH   2  10
HETATM   10  C   UNK N   1      36.487 -22.819 -74.081  0.00  0.00     0.032 C 
BRANCH  10  11
HETATM   11  C   UNK N   1      37.480 -21.994 -73.294  0.00  0.00    -0.024 C 
HETATM   12  C   UNK N   1      37.248 -21.447 -72.076  0.00  0.00    -0.091 C 
HETATM   13  C   UNK N   1      38.338 -20.652 -71.405  0.00  0.00     0.042 C 
HETATM   14  C   UNK N   1      35.941 -21.588 -71.328  0.00  0.00     0.042 C 
ENDBRANCH  10  11
ENDBRANCH   2  10
BRANCH   5  15
HETATM   15  C   UNK N   1      39.905 -27.065 -76.434  0.00  0.00     0.199 C 
BRANCH  15  16
HETATM   16  O   UNK N   1      39.103 -28.204 -76.596  0.00  0.00    -0.397 OA
HETATM   17  H   UNK N   1      39.600 -28.822 -77.194  0.00  0.00     0.209 HD
ENDBRANCH  15  16
ENDBRANCH   5  15
TORSDOF 4
ENDMDL
MODEL 2
REMARK VINA RESULT:      -7.1      7.140      9.375
REMARK  4 active torsions:
REMARK  status: ('A' for Active; 'I' for Inactive)
REMARK    1  A    between atoms: O_1  and  C_11 
REMARK    2  A    between atoms: C_3  and  C_8 
REMARK    3  A    between atoms: C_6  and  C_11 
REMARK    4  A    between atoms: C_8  and  C_13 
ROOT
HETATM    1  C   UNK N   1      30.317 -18.128 -77.094  0.00  0.00    -0.022 C 
HETATM    2  C   UNK N   1      31.874 -18.083 -75.077  0.00  0.00    -0.006 C 
HETATM    3  C   UNK N   1      30.439 -18.263 -75.546  0.00  0.00     0.018 C 
HETATM    4  C   UNK N   1      32.718 -19.220 -75.684  0.00  0.00     0.039 C 
HETATM    5  C   UNK N   1      31.391 -18.965 -77.828  0.00  0.00    -0.047 C 
HETATM    6  C   UNK N   1      32.470 -19.491 -77.158  0.00  0.00    -0.078 C 
HETATM    7  C   UNK N   1      30.441 -16.651 -77.533  0.00  0.00     0.019 C 
HETATM    8  C   UNK N   1      28.892 -18.632 -77.442  0.00  0.00     0.019 C 
HETATM    9  C   UNK N   1      33.504 -20.376 -77.827  0.00  0.00     0.044 C 
ENDROOT
BRANCH   2  10
HETATM   10  C   UNK N   1      31.953 -18.106 -73.535  0.00  0.00     0.032 C 
BRANCH  10  11
HETATM   11  C   UNK N   1      32.668 -19.332 -73.015  0.00  0.00    -0.024 C 
HETATM   12  C   UNK N   1      32.995 -19.554 -71.718  0.00  0.00    -0.091 C 
HETATM   13  C   UNK N   1      33.703 -20.830 -71.344  0.00  0.00     0.042 C 
HETATM   14  C   UNK N   1      32.687 -18.585 -70.598  0.00  0.00     0.042 C 
ENDBRANCH  10  11
ENDBRANCH   2  10
BRANCH   5  15
HETATM   15  C   UNK N   1      31.234 -19.193 -79.327  0.00  0.00     0.199 C 
BRANCH  15  16
HETATM   16  O   UNK N   1      31.951 -18.213 -80.028  0.00  0.00    -0.397 OA
HETATM   17  H   UNK N   1      31.286 -17.558 -80.368  0.00  0.00     0.209 HD
ENDBRANCH  15  16
ENDBRANCH   5  15
TORSDOF 4
ENDMDL
MODEL 3
REMARK VINA RESULT:      -6.9      8.278     10.050
REMARK  4 active torsions:
REMARK  status: ('A' for Active; 'I' for Inactive)
REMARK    1  A    between atoms: O_1  and  C_11 
REMARK    2  A    between atoms: C_3  and  C_8 
REMARK    3  A    between atoms: C_6  and  C_11 
REMARK    4  A    between atoms: C_8  and  C_13 
ROOT
HETATM    1  C   UNK N   1      30.394 -18.068 -78.428  0.00  0.00    -0.022 C 
HETATM    2  C   UNK N   1      32.014 -18.052 -76.460  0.00  0.00    -0.006 C 
HETATM    3  C   UNK N   1      30.574 -18.274 -76.894  0.00  0.00     0.018 C 
HETATM    4  C   UNK N   1      32.887 -19.116 -77.150  0.00  0.00     0.039 C 
HETATM    5  C   UNK N   1      31.480 -18.817 -79.236  0.00  0.00    -0.047 C 
HETATM    6  C   UNK N   1      32.603 -19.325 -78.628  0.00  0.00    -0.078 C 
HETATM    7  C   UNK N   1      30.437 -16.567 -78.795  0.00  0.00     0.019 C 
HETATM    8  C   UNK N   1      28.983 -18.620 -78.758  0.00  0.00     0.019 C 
HETATM    9  C   UNK N   1      33.653 -20.126 -79.373  0.00  0.00     0.044 C 
ENDROOT
BRANCH   2  10
HETATM   10  C   UNK N   1      32.145 -18.147 -74.924  0.00  0.00     0.032 C 
BRANCH  10  11
HETATM   11  C   UNK N   1      30.802 -18.272 -74.241  0.00  0.00    -0.024 C 
HETATM   12  C   UNK N   1      30.610 -18.713 -72.974  0.00  0.00    -0.091 C 
HETATM   13  C   UNK N   1      29.210 -18.778 -72.420  0.00  0.00     0.042 C 
HETATM   14  C   UNK N   1      31.732 -19.152 -72.059  0.00  0.00     0.042 C 
ENDBRANCH  10  11
ENDBRANCH   2  10
BRANCH   5  15
HETATM   15  C   UNK N   1      31.283 -18.977 -80.740  0.00  0.00     0.199 C 
BRANCH  15  16
HETATM   16  O   UNK N   1      31.981 -17.964 -81.415  0.00  0.00    -0.397 OA
HETATM   17  H   UNK N   1      32.207 -17.272 -80.740  0.00  0.00     0.209 HD
ENDBRANCH  15  16
ENDBRANCH   5  15
TORSDOF 4
ENDMDL
MODEL 4
REMARK VINA RESULT:      -6.9      7.729     10.191
REMARK  4 active torsions:
REMARK  status: ('A' for Active; 'I' for Inactive)
REMARK    1  A    between atoms: O_1  and  C_11 
REMARK    2  A    between atoms: C_3  and  C_8 
REMARK    3  A    between atoms: C_6  and  C_11 
REMARK    4  A    between atoms: C_8  and  C_13 
ROOT
HETATM    1  C   UNK N   1      31.097 -18.069 -76.999  0.00  0.00    -0.022 C 
HETATM    2  C   UNK N   1      31.239 -18.525 -74.496  0.00  0.00    -0.006 C 
HETATM    3  C   UNK N   1      31.729 -17.650 -75.638  0.00  0.00     0.018 C 
HETATM    4  C   UNK N   1      29.720 -18.317 -74.356  0.00  0.00     0.039 C 
HETATM    5  C   UNK N   1      29.566 -18.257 -76.886  0.00  0.00    -0.047 C 
HETATM    6  C   UNK N   1      28.943 -18.333 -75.662  0.00  0.00    -0.078 C 
HETATM    7  C   UNK N   1      31.729 -19.378 -77.525  0.00  0.00     0.019 C 
HETATM    8  C   UNK N   1      31.439 -16.922 -77.986  0.00  0.00     0.019 C 
HETATM    9  C   UNK N   1      27.439 -18.446 -75.509  0.00  0.00     0.044 C 
ENDROOT
BRANCH   2  10
HETATM   10  C   UNK N   1      31.964 -18.167 -73.181  0.00  0.00     0.032 C 
BRANCH  10  11
HETATM   11  C   UNK N   1      32.857 -19.286 -72.696  0.00  0.00    -0.024 C 
HETATM   12  C   UNK N   1      33.232 -19.483 -71.408  0.00  0.00    -0.091 C 
HETATM   13  C   UNK N   1      34.123 -20.649 -71.069  0.00  0.00     0.042 C 
HETATM   14  C   UNK N   1      32.804 -18.590 -70.264  0.00  0.00     0.042 C 
ENDBRANCH  10  11
ENDBRANCH   2  10
BRANCH   5  15
HETATM   15  C   UNK N   1      28.751 -18.368 -78.169  0.00  0.00     0.199 C 
BRANCH  15  16
HETATM   16  O   UNK N   1      28.529 -19.720 -78.470  0.00  0.00    -0.397 OA
HETATM   17  H   UNK N   1      28.070 -20.117 -77.685  0.00  0.00     0.209 HD
ENDBRANCH  15  16
ENDBRANCH   5  15
TORSDOF 4
ENDMDL
MODEL 5
REMARK VINA RESULT:      -6.8      5.624      8.220
REMARK  4 active torsions:
REMARK  status: ('A' for Active; 'I' for Inactive)
REMARK    1  A    between atoms: O_1  and  C_11 
REMARK    2  A    between atoms: C_3  and  C_8 
REMARK    3  A    between atoms: C_6  and  C_11 
REMARK    4  A    between atoms: C_8  and  C_13 
ROOT
HETATM    1  C   UNK N   1      33.072 -19.113 -76.434  0.00  0.00    -0.022 C 
HETATM    2  C   UNK N   1      33.943 -20.749 -74.686  0.00  0.00    -0.006 C 
HETATM    3  C   UNK N   1      34.323 -19.804 -75.815  0.00  0.00     0.018 C 
HETATM    4  C   UNK N   1      33.302 -19.914 -73.562  0.00  0.00     0.039 C 
HETATM    5  C   UNK N   1      32.135 -18.541 -75.345  0.00  0.00    -0.047 C 
HETATM    6  C   UNK N   1      32.277 -18.891 -74.023  0.00  0.00    -0.078 C 
HETATM    7  C   UNK N   1      32.275 -20.099 -77.319  0.00  0.00     0.019 C 
HETATM    8  C   UNK N   1      33.628 -17.978 -77.333  0.00  0.00     0.019 C 
HETATM    9  C   UNK N   1      31.425 -18.298 -72.917  0.00  0.00     0.044 C 
ENDROOT
BRANCH   2  10
HETATM   10  C   UNK N   1      35.184 -21.508 -74.165  0.00  0.00     0.032 C 
BRANCH  10  11
HETATM   11  C   UNK N   1      36.072 -20.634 -73.310  0.00  0.00    -0.024 C 
HETATM   12  C   UNK N   1      36.927 -21.084 -72.359  0.00  0.00    -0.091 C 
HETATM   13  C   UNK N   1      37.759 -20.094 -71.586  0.00  0.00     0.042 C 
HETATM   14  C   UNK N   1      37.105 -22.547 -72.016  0.00  0.00     0.042 C 
ENDBRANCH  10  11
ENDBRANCH   2  10
BRANCH   5  15
HETATM   15  C   UNK N   1      31.032 -17.578 -75.769  0.00  0.00     0.199 C 
BRANCH  15  16
HETATM   16  O   UNK N   1      29.828 -18.280 -75.921  0.00  0.00    -0.397 OA
HETATM   17  H   UNK N   1      30.008 -19.027 -76.551  0.00  0.00     0.209 HD
ENDBRANCH  15  16
ENDBRANCH   5  15
TORSDOF 4
ENDMDL
MODEL 6
REMARK VINA RESULT:      -6.7      8.464     10.335
REMARK  4 active torsions:
REMARK  status: ('A' for Active; 'I' for Inactive)
REMARK    1  A    between atoms: O_1  and  C_11 
REMARK    2  A    between atoms: C_3  and  C_8 
REMARK    3  A    between atoms: C_6  and  C_11 
REMARK    4  A    between atoms: C_8  and  C_13 
ROOT
HETATM    1  C   UNK N   1      29.299 -19.291 -78.828  0.00  0.00    -0.022 C 
HETATM    2  C   UNK N   1      30.551 -17.726 -77.254  0.00  0.00    -0.006 C 
HETATM    3  C   UNK N   1      29.276 -18.525 -77.471  0.00  0.00     0.018 C 
HETATM    4  C   UNK N   1      31.726 -18.718 -77.178  0.00  0.00     0.039 C 
HETATM    5  C   UNK N   1      30.630 -20.051 -79.035  0.00  0.00    -0.047 C 
HETATM    6  C   UNK N   1      31.726 -19.802 -78.243  0.00  0.00    -0.078 C 
HETATM    7  C   UNK N   1      29.080 -18.324 -80.014  0.00  0.00     0.019 C 
HETATM    8  C   UNK N   1      28.105 -20.279 -78.766  0.00  0.00     0.019 C 
HETATM    9  C   UNK N   1      33.025 -20.574 -78.368  0.00  0.00     0.044 C 
ENDROOT
BRANCH   2  10
HETATM   10  C   UNK N   1      30.458 -16.887 -75.962  0.00  0.00     0.032 C 
BRANCH  10  11
HETATM   11  C   UNK N   1      29.612 -17.556 -74.903  0.00  0.00    -0.024 C 
HETATM   12  C   UNK N   1      30.095 -18.207 -73.815  0.00  0.00    -0.091 C 
HETATM   13  C   UNK N   1      29.129 -18.822 -72.836  0.00  0.00     0.042 C 
HETATM   14  C   UNK N   1      31.569 -18.356 -73.513  0.00  0.00     0.042 C 
ENDBRANCH  10  11
ENDBRANCH   2  10
BRANCH   5  15
HETATM   15  C   UNK N   1      30.709 -21.087 -80.150  0.00  0.00     0.199 C 
BRANCH  15  16
HETATM   16  O   UNK N   1      31.360 -20.532 -81.262  0.00  0.00    -0.397 OA
HETATM   17  H   UNK N   1      32.253 -20.962 -81.317  0.00  0.00     0.209 HD
ENDBRANCH  15  16
ENDBRANCH   5  15
TORSDOF 4
ENDMDL
MODEL 7
REMARK VINA RESULT:      -6.6      7.986     10.779
REMARK  4 active torsions:
REMARK  status: ('A' for Active; 'I' for Inactive)
REMARK    1  A    between atoms: O_1  and  C_11 
REMARK    2  A    between atoms: C_3  and  C_8 
REMARK    3  A    between atoms: C_6  and  C_11 
REMARK    4  A    between atoms: C_8  and  C_13 
ROOT
HETATM    1  C   UNK N   1      30.590 -17.755 -77.295  0.00  0.00    -0.022 C 
HETATM    2  C   UNK N   1      32.341 -19.604 -77.409  0.00  0.00    -0.006 C 
HETATM    3  C   UNK N   1      31.829 -18.324 -78.051  0.00  0.00     0.018 C 
HETATM    4  C   UNK N   1      32.815 -19.264 -75.984  0.00  0.00     0.039 C 
HETATM    5  C   UNK N   1      30.821 -17.714 -75.766  0.00  0.00    -0.047 C 
HETATM    6  C   UNK N   1      31.871 -18.384 -75.183  0.00  0.00    -0.078 C 
HETATM    7  C   UNK N   1      29.326 -18.595 -77.592  0.00  0.00     0.019 C 
HETATM    8  C   UNK N   1      30.381 -16.326 -77.859  0.00  0.00     0.019 C 
HETATM    9  C   UNK N   1      32.172 -18.310 -73.698  0.00  0.00     0.044 C 
ENDROOT
BRANCH   2  10
HETATM   10  C   UNK N   1      33.493 -20.210 -78.240  0.00  0.00     0.032 C 
BRANCH  10  11
HETATM   11  C   UNK N   1      33.688 -19.494 -79.557  0.00  0.00    -0.024 C 
HETATM   12  C   UNK N   1      34.322 -20.010 -80.639  0.00  0.00    -0.091 C 
HETATM   13  C   UNK N   1      34.435 -19.182 -81.892  0.00  0.00     0.042 C 
HETATM   14  C   UNK N   1      34.935 -21.393 -80.672  0.00  0.00     0.042 C 
ENDBRANCH  10  11
ENDBRANCH   2  10
BRANCH   5  15
HETATM   15  C   UNK N   1      29.849 -16.915 -74.907  0.00  0.00     0.199 C 
BRANCH  15  16
HETATM   16  O   UNK N   1      28.868 -17.772 -74.386  0.00  0.00    -0.397 OA
HETATM   17  H   UNK N   1      28.731 -17.511 -73.438  0.00  0.00     0.209 HD
ENDBRANCH  15  16
ENDBRANCH   5  15
TORSDOF 4
ENDMDL
MODEL 8
REMARK VINA RESULT:      -6.5      8.876     10.551
REMARK  4 active torsions:
REMARK  status: ('A' for Active; 'I' for Inactive)
REMARK    1  A    between atoms: O_1  and  C_11 
REMARK    2  A    between atoms: C_3  and  C_8 
REMARK    3  A    between atoms: C_6  and  C_11 
REMARK    4  A    between atoms: C_8  and  C_13 
ROOT
HETATM    1  C   UNK N   1      31.282 -18.876 -79.744  0.00  0.00    -0.022 C 
HETATM    2  C   UNK N   1      30.491 -18.382 -77.372  0.00  0.00    -0.006 C 
HETATM    3  C   UNK N   1      31.043 -17.785 -78.657  0.00  0.00     0.018 C 
HETATM    4  C   UNK N   1      29.115 -18.997 -77.686  0.00  0.00     0.039 C 
HETATM    5  C   UNK N   1      30.063 -19.816 -79.890  0.00  0.00    -0.047 C 
HETATM    6  C   UNK N   1      29.057 -19.834 -78.953  0.00  0.00    -0.078 C 
HETATM    7  C   UNK N   1      32.535 -19.720 -79.415  0.00  0.00     0.019 C 
HETATM    8  C   UNK N   1      31.539 -18.099 -81.061  0.00  0.00     0.019 C 
HETATM    9  C   UNK N   1      27.812 -20.689 -79.097  0.00  0.00     0.044 C 
ENDROOT
BRANCH   2  10
HETATM   10  C   UNK N   1      30.371 -17.302 -76.274  0.00  0.00     0.032 C 
BRANCH  10  11
HETATM   11  C   UNK N   1      29.568 -17.780 -75.086  0.00  0.00    -0.024 C 
HETATM   12  C   UNK N   1      30.093 -18.254 -73.929  0.00  0.00    -0.091 C 
HETATM   13  C   UNK N   1      29.167 -18.690 -72.823  0.00  0.00     0.042 C 
HETATM   14  C   UNK N   1      31.578 -18.374 -73.669  0.00  0.00     0.042 C 
ENDBRANCH  10  11
ENDBRANCH   2  10
BRANCH   5  15
HETATM   15  C   UNK N   1      30.000 -20.741 -81.100  0.00  0.00     0.199 C 
BRANCH  15  16
HETATM   16  O   UNK N   1      30.486 -22.008 -80.749  0.00  0.00    -0.397 OA
HETATM   17  H   UNK N   1      30.145 -22.646 -81.430  0.00  0.00     0.209 HD
ENDBRANCH  15  16
ENDBRANCH   5  15
TORSDOF 4
ENDMDL
MODEL 9
REMARK VINA RESULT:      -6.0      6.354      9.511
REMARK  4 active torsions:
REMARK  status: ('A' for Active; 'I' for Inactive)
REMARK    1  A    between atoms: O_1  and  C_11 
REMARK    2  A    between atoms: C_3  and  C_8 
REMARK    3  A    between atoms: C_6  and  C_11 
REMARK    4  A    between atoms: C_8  and  C_13 
ROOT
HETATM    1  C   UNK N   1      39.330 -21.417 -82.202  0.00  0.00    -0.022 C 
HETATM    2  C   UNK N   1      37.635 -23.257 -82.686  0.00  0.00    -0.006 C 
HETATM    3  C   UNK N   1      38.670 -22.319 -83.287  0.00  0.00     0.018 C 
HETATM    4  C   UNK N   1      38.360 -24.204 -81.711  0.00  0.00     0.039 C 
HETATM    5  C   UNK N   1      39.778 -22.238 -80.970  0.00  0.00    -0.047 C 
HETATM    6  C   UNK N   1      39.353 -23.531 -80.777  0.00  0.00    -0.078 C 
HETATM    7  C   UNK N   1      38.360 -20.304 -81.741  0.00  0.00     0.019 C 
HETATM    8  C   UNK N   1      40.549 -20.757 -82.897  0.00  0.00     0.019 C 
HETATM    9  C   UNK N   1      39.826 -24.391 -79.622  0.00  0.00     0.044 C 
ENDROOT
BRANCH   2  10
HETATM   10  C   UNK N   1      36.913 -24.058 -83.791  0.00  0.00     0.032 C 
BRANCH  10  11
HETATM   11  C   UNK N   1      36.403 -23.170 -84.903  0.00  0.00    -0.024 C 
HETATM   12  C   UNK N   1      35.256 -22.448 -84.860  0.00  0.00    -0.091 C 
HETATM   13  C   UNK N   1      34.875 -21.598 -86.044  0.00  0.00     0.042 C 
HETATM   14  C   UNK N   1      34.314 -22.440 -83.677  0.00  0.00     0.042 C 
ENDBRANCH  10  11
ENDBRANCH   2  10
BRANCH   5  15
HETATM   15  C   UNK N   1      40.705 -21.577 -79.956  0.00  0.00     0.199 C 
BRANCH  15  16
HETATM   16  O   UNK N   1      39.951 -21.086 -78.880  0.00  0.00    -0.397 OA
HETATM   17  H   UNK N   1      40.573 -20.567 -78.306  0.00  0.00     0.209 HD
ENDBRANCH  15  16
ENDBRANCH   5  15
TORSDOF 4
ENDMDL
