MODEL 1
REMARK VINA RESULT:      -6.6      0.000      0.000
REMARK  1 active torsions:
REMARK  status: ('A' for Active; 'I' for Inactive)
REMARK    1  A    between atoms: C_1  and  C_4 
ROOT
HETATM    1  C   UNK N   1      31.936 -18.200 -73.255  0.00  0.00     0.017 C 
HETATM    2  C   UNK N   1      32.150 -18.383 -74.768  0.00  0.00     0.013 C 
HETATM    3  C   UNK N   1      30.450 -18.346 -73.165  0.00  0.00    -0.019 C 
HETATM    4  C   UNK N   1      30.856 -17.914 -75.429  0.00  0.00     0.034 C 
HETATM    5  C   UNK N   1      29.869 -18.203 -74.351  0.00  0.00    -0.087 C 
HETATM    6  C   UNK N   1      28.386 -18.223 -74.571  0.00  0.00     0.043 C 
ENDROOT
BRANCH   1   7
HETATM    7  C   UNK N   1      32.713 -19.266 -72.438  0.00  0.00    -0.037 A 
HETATM    8  C   UNK N   1      33.101 -18.896 -71.022  0.00  0.00     0.010 A 
HETATM    9  C   UNK N   1      31.937 -19.877 -71.287  0.00  0.00     0.010 A 
HETATM   10  C   UNK N   1      33.616 -20.271 -73.179  0.00  0.00     0.016 C 
ENDBRANCH   1   7
TORSDOF 1
ENDMDL
MODEL 2
REMARK VINA RESULT:      -6.5      1.240      4.214
REMARK  1 active torsions:
REMARK  status: ('A' for Active; 'I' for Inactive)
REMARK    1  A    between atoms: C_1  and  C_4 
ROOT
HETATM    1  C   UNK N   1      30.805 -17.584 -74.735  0.00  0.00     0.017 C 
HETATM    2  C   UNK N   1      29.515 -18.313 -74.321  0.00  0.00     0.013 C 
HETATM    3  C   UNK N   1      31.787 -18.191 -73.784  0.00  0.00    -0.019 C 
HETATM    4  C   UNK N   1      29.695 -18.668 -72.846  0.00  0.00     0.034 C 
HETATM    5  C   UNK N   1      31.178 -18.791 -72.766  0.00  0.00    -0.087 C 
HETATM    6  C   UNK N   1      31.894 -19.427 -71.613  0.00  0.00     0.043 C 
ENDROOT
BRANCH   1   7
HETATM    7  C   UNK N   1      31.149 -17.839 -76.226  0.00  0.00    -0.037 A 
HETATM    8  C   UNK N   1      30.024 -18.325 -77.117  0.00  0.00     0.010 A 
HETATM    9  C   UNK N   1      30.518 -16.863 -77.202  0.00  0.00     0.010 A 
HETATM   10  C   UNK N   1      32.583 -18.256 -76.608  0.00  0.00     0.016 C 
ENDBRANCH   1   7
TORSDOF 1
ENDMDL
MODEL 3
REMARK VINA RESULT:      -6.4      1.002      4.200
REMARK  1 active torsions:
REMARK  status: ('A' for Active; 'I' for Inactive)
REMARK    1  A    between atoms: C_1  and  C_4 
ROOT
HETATM    1  C   UNK N   1      31.704 -18.153 -73.479  0.00  0.00     0.017 C 
HETATM    2  C   UNK N   1      31.674 -19.030 -72.214  0.00  0.00     0.013 C 
HETATM    3  C   UNK N   1      32.595 -18.968 -74.362  0.00  0.00    -0.019 C 
HETATM    4  C   UNK N   1      32.997 -19.793 -72.208  0.00  0.00     0.034 C 
HETATM    5  C   UNK N   1      33.285 -19.868 -73.668  0.00  0.00    -0.087 C 
HETATM    6  C   UNK N   1      34.315 -20.781 -74.261  0.00  0.00     0.043 C 
ENDROOT
BRANCH   1   7
HETATM    7  C   UNK N   1      30.281 -17.944 -74.060  0.00  0.00    -0.037 A 
HETATM    8  C   UNK N   1      30.029 -16.653 -74.811  0.00  0.00     0.010 A 
HETATM    9  C   UNK N   1      30.199 -17.986 -75.575  0.00  0.00     0.010 A 
HETATM   10  C   UNK N   1      29.077 -18.600 -73.356  0.00  0.00     0.016 C 
ENDBRANCH   1   7
TORSDOF 1
ENDMDL
MODEL 4
REMARK VINA RESULT:      -6.4      1.691      4.655
REMARK  1 active torsions:
REMARK  status: ('A' for Active; 'I' for Inactive)
REMARK    1  A    between atoms: C_1  and  C_4 
ROOT
HETATM    1  C   UNK N   1      30.167 -17.388 -75.557  0.00  0.00     0.017 C 
HETATM    2  C   UNK N   1      28.986 -18.164 -74.947  0.00  0.00     0.013 C 
HETATM    3  C   UNK N   1      31.291 -17.863 -74.691  0.00  0.00    -0.019 C 
HETATM    4  C   UNK N   1      29.358 -18.399 -73.484  0.00  0.00     0.034 C 
HETATM    5  C   UNK N   1      30.845 -18.424 -73.572  0.00  0.00    -0.087 C 
HETATM    6  C   UNK N   1      31.729 -18.929 -72.472  0.00  0.00     0.043 C 
ENDROOT
BRANCH   1   7
HETATM    7  C   UNK N   1      30.357 -17.729 -77.059  0.00  0.00    -0.037 A 
HETATM    8  C   UNK N   1      30.944 -16.647 -77.940  0.00  0.00     0.010 A 
HETATM    9  C   UNK N   1      31.801 -17.857 -77.506  0.00  0.00     0.010 A 
HETATM   10  C   UNK N   1      29.410 -18.748 -77.724  0.00  0.00     0.016 C 
ENDBRANCH   1   7
TORSDOF 1
ENDMDL
MODEL 5
REMARK VINA RESULT:      -6.4      2.070      4.992
REMARK  1 active torsions:
REMARK  status: ('A' for Active; 'I' for Inactive)
REMARK    1  A    between atoms: C_1  and  C_4 
ROOT
HETATM    1  C   UNK N   1      33.439 -20.622 -71.898  0.00  0.00     0.017 C 
HETATM    2  C   UNK N   1      33.976 -20.655 -73.340  0.00  0.00     0.013 C 
HETATM    3  C   UNK N   1      34.710 -20.762 -71.123  0.00  0.00    -0.019 C 
HETATM    4  C   UNK N   1      35.264 -21.475 -73.283  0.00  0.00     0.034 C 
HETATM    5  C   UNK N   1      35.703 -21.212 -71.883  0.00  0.00    -0.087 C 
HETATM    6  C   UNK N   1      37.078 -21.524 -71.376  0.00  0.00     0.043 C 
ENDROOT
BRANCH   1   7
HETATM    7  C   UNK N   1      32.677 -19.303 -71.605  0.00  0.00    -0.037 A 
HETATM    8  C   UNK N   1      32.277 -18.461 -72.799  0.00  0.00     0.010 A 
HETATM    9  C   UNK N   1      31.223 -19.297 -72.039  0.00  0.00     0.010 A 
HETATM   10  C   UNK N   1      32.928 -18.568 -70.273  0.00  0.00     0.016 C 
ENDBRANCH   1   7
TORSDOF 1
ENDMDL
MODEL 6
REMARK VINA RESULT:      -6.0      2.065      3.859
REMARK  1 active torsions:
REMARK  status: ('A' for Active; 'I' for Inactive)
REMARK    1  A    between atoms: C_1  and  C_4 
ROOT
HETATM    1  C   UNK N   1      34.050 -20.859 -71.922  0.00  0.00     0.017 C 
HETATM    2  C   UNK N   1      33.946 -19.779 -70.830  0.00  0.00     0.013 C 
HETATM    3  C   UNK N   1      33.332 -20.187 -73.049  0.00  0.00    -0.019 C 
HETATM    4  C   UNK N   1      32.674 -18.993 -71.145  0.00  0.00     0.034 C 
HETATM    5  C   UNK N   1      32.597 -19.165 -72.623  0.00  0.00    -0.087 C 
HETATM    6  C   UNK N   1      31.707 -18.342 -73.505  0.00  0.00     0.043 C 
ENDROOT
BRANCH   1   7
HETATM    7  C   UNK N   1      35.528 -21.201 -72.245  0.00  0.00    -0.037 A 
HETATM    8  C   UNK N   1      36.591 -20.362 -71.567  0.00  0.00     0.010 A 
HETATM    9  C   UNK N   1      36.309 -21.806 -71.093  0.00  0.00     0.010 A 
HETATM   10  C   UNK N   1      35.877 -21.810 -73.618  0.00  0.00     0.016 C 
ENDBRANCH   1   7
TORSDOF 1
ENDMDL
MODEL 7
REMARK VINA RESULT:      -6.0      1.794      4.120
REMARK  1 active torsions:
REMARK  status: ('A' for Active; 'I' for Inactive)
REMARK    1  A    between atoms: C_1  and  C_4 
ROOT
HETATM    1  C   UNK N   1      31.554 -17.727 -75.799  0.00  0.00     0.017 C 
HETATM    2  C   UNK N   1      30.083 -18.118 -75.570  0.00  0.00     0.013 C 
HETATM    3  C   UNK N   1      32.182 -18.261 -74.551  0.00  0.00    -0.019 C 
HETATM    4  C   UNK N   1      29.896 -18.158 -74.054  0.00  0.00     0.034 C 
HETATM    5  C   UNK N   1      31.276 -18.508 -73.611  0.00  0.00    -0.087 C 
HETATM    6  C   UNK N   1      31.604 -18.979 -72.227  0.00  0.00     0.043 C 
ENDROOT
BRANCH   1   7
HETATM    7  C   UNK N   1      32.116 -18.364 -77.097  0.00  0.00    -0.037 A 
HETATM    8  C   UNK N   1      33.621 -18.375 -77.260  0.00  0.00     0.010 A 
HETATM    9  C   UNK N   1      32.861 -19.670 -76.895  0.00  0.00     0.010 A 
HETATM   10  C   UNK N   1      31.265 -18.330 -78.382  0.00  0.00     0.016 C 
ENDBRANCH   1   7
TORSDOF 1
ENDMDL
MODEL 8
REMARK VINA RESULT:      -5.9      2.754      4.494
REMARK  1 active torsions:
REMARK  status: ('A' for Active; 'I' for Inactive)
REMARK    1  A    between atoms: C_1  and  C_4 
ROOT
HETATM    1  C   UNK N   1      35.297 -20.375 -72.029  0.00  0.00     0.017 C 
HETATM    2  C   UNK N   1      34.656 -21.017 -73.272  0.00  0.00     0.013 C 
HETATM    3  C   UNK N   1      34.080 -19.885 -71.310  0.00  0.00    -0.019 C 
HETATM    4  C   UNK N   1      33.349 -20.260 -73.502  0.00  0.00     0.034 C 
HETATM    5  C   UNK N   1      33.021 -19.838 -72.111  0.00  0.00    -0.087 C 
HETATM    6  C   UNK N   1      31.676 -19.320 -71.701  0.00  0.00     0.043 C 
ENDROOT
BRANCH   1   7
HETATM    7  C   UNK N   1      36.122 -21.407 -71.217  0.00  0.00    -0.037 A 
HETATM    8  C   UNK N   1      37.131 -22.235 -71.984  0.00  0.00     0.010 A 
HETATM    9  C   UNK N   1      37.596 -21.075 -71.074  0.00  0.00     0.010 A 
HETATM   10  C   UNK N   1      35.505 -22.038 -69.953  0.00  0.00     0.016 C 
ENDBRANCH   1   7
TORSDOF 1
ENDMDL
MODEL 9
REMARK VINA RESULT:      -5.7      2.151      3.952
REMARK  1 active torsions:
REMARK  status: ('A' for Active; 'I' for Inactive)
REMARK    1  A    between atoms: C_1  and  C_4 
ROOT
HETATM    1  C   UNK N   1      31.900 -18.042 -75.913  0.00  0.00     0.017 C 
HETATM    2  C   UNK N   1      32.958 -19.137 -75.684  0.00  0.00     0.013 C 
HETATM    3  C   UNK N   1      31.201 -18.578 -77.122  0.00  0.00    -0.019 C 
HETATM    4  C   UNK N   1      33.233 -19.740 -77.060  0.00  0.00     0.034 C 
HETATM    5  C   UNK N   1      31.924 -19.510 -77.734  0.00  0.00    -0.087 C 
HETATM    6  C   UNK N   1      31.524 -20.181 -79.014  0.00  0.00     0.043 C 
ENDROOT
BRANCH   1   7
HETATM    7  C   UNK N   1      30.970 -17.884 -74.681  0.00  0.00    -0.037 A 
HETATM    8  C   UNK N   1      30.020 -16.705 -74.685  0.00  0.00     0.010 A 
HETATM    9  C   UNK N   1      29.499 -18.135 -74.956  0.00  0.00     0.010 A 
HETATM   10  C   UNK N   1      31.442 -18.408 -73.310  0.00  0.00     0.016 C 
ENDBRANCH   1   7
TORSDOF 1
ENDMDL
