MODEL 1
REMARK VINA RESULT:      -7.1      0.000      0.000
REMARK  2 active torsions:
REMARK  status: ('A' for Active; 'I' for Inactive)
REMARK    1  A    between atoms: O_1  and  C_9 
REMARK    2  A    between atoms: C_4  and  C_9 
ROOT
HETATM    1  C   UNK N   1      38.679 -26.058 -74.697  0.00  0.00    -0.036 C 
HETATM    2  C   UNK N   1      39.268 -26.717 -75.986  0.00  0.00     0.022 C 
HETATM    3  C   UNK N   1      38.385 -24.786 -77.452  0.00  0.00     0.020 C 
HETATM    4  C   UNK N   1      39.593 -25.688 -77.095  0.00  0.00     0.017 C 
HETATM    5  C   UNK N   1      37.509 -25.116 -75.089  0.00  0.00     0.010 C 
HETATM    6  C   UNK N   1      37.886 -24.086 -76.161  0.00  0.00     0.008 C 
HETATM    7  C   UNK N   1      39.813 -25.291 -73.977  0.00  0.00     0.013 C 
HETATM    8  C   UNK N   1      40.539 -27.514 -75.701  0.00  0.00    -0.083 C 
HETATM    9  C   UNK N   1      38.087 -27.143 -73.758  0.00  0.00     0.016 C 
HETATM   10  C   UNK N   1      40.958 -26.230 -73.562  0.00  0.00     0.028 C 
HETATM   11  C   UNK N   1      41.291 -27.283 -74.599  0.00  0.00    -0.024 C 
HETATM   12  C   UNK N   1      40.958 -28.583 -76.681  0.00  0.00     0.043 C 
ENDROOT
BRANCH   3  13
HETATM   13  C   UNK N   1      38.740 -23.756 -78.588  0.00  0.00     0.054 C 
HETATM   14  C   UNK N   1      37.468 -23.361 -79.375  0.00  0.00     0.045 C 
HETATM   15  C   UNK N   1      39.749 -24.363 -79.594  0.00  0.00     0.045 C 
BRANCH  13  16
HETATM   16  O   UNK N   1      39.305 -22.605 -78.003  0.00  0.00    -0.390 OA
HETATM   17  H   UNK N   1      40.279 -22.758 -77.888  0.00  0.00     0.210 HD
ENDBRANCH  13  16
ENDBRANCH   3  13
TORSDOF 2
ENDMDL
MODEL 2
REMARK VINA RESULT:      -6.6      6.517      9.982
REMARK  2 active torsions:
REMARK  status: ('A' for Active; 'I' for Inactive)
REMARK    1  A    between atoms: O_1  and  C_9 
REMARK    2  A    between atoms: C_4  and  C_9 
ROOT
HETATM    1  C   UNK N   1      35.097 -20.710 -83.009  0.00  0.00    -0.036 C 
HETATM    2  C   UNK N   1      35.423 -21.325 -84.408  0.00  0.00     0.022 C 
HETATM    3  C   UNK N   1      37.255 -22.829 -83.392  0.00  0.00     0.020 C 
HETATM    4  C   UNK N   1      36.017 -22.751 -84.318  0.00  0.00     0.017 C 
HETATM    5  C   UNK N   1      36.336 -20.854 -82.083  0.00  0.00     0.010 C 
HETATM    6  C   UNK N   1      36.866 -22.290 -81.990  0.00  0.00     0.008 C 
HETATM    7  C   UNK N   1      33.863 -21.439 -82.428  0.00  0.00     0.013 C 
HETATM    8  C   UNK N   1      34.194 -21.387 -85.314  0.00  0.00    -0.083 C 
HETATM    9  C   UNK N   1      34.808 -19.191 -83.140  0.00  0.00     0.016 C 
HETATM   10  C   UNK N   1      32.629 -21.271 -83.330  0.00  0.00     0.028 C 
HETATM   11  C   UNK N   1      32.938 -21.359 -84.810  0.00  0.00    -0.024 C 
HETATM   12  C   UNK N   1      34.400 -21.482 -86.807  0.00  0.00     0.043 C 
ENDROOT
BRANCH   3  13
HETATM   13  C   UNK N   1      37.845 -24.287 -83.325  0.00  0.00     0.054 C 
HETATM   14  C   UNK N   1      38.268 -24.632 -81.877  0.00  0.00     0.045 C 
HETATM   15  C   UNK N   1      39.095 -24.423 -84.228  0.00  0.00     0.045 C 
BRANCH  13  16
HETATM   16  O   UNK N   1      36.860 -25.199 -83.756  0.00  0.00    -0.390 OA
HETATM   17  H   UNK N   1      36.979 -26.049 -83.255  0.00  0.00     0.210 HD
ENDBRANCH  13  16
ENDBRANCH   3  13
TORSDOF 2
ENDMDL
MODEL 3
REMARK VINA RESULT:      -6.5      5.823      8.445
REMARK  2 active torsions:
REMARK  status: ('A' for Active; 'I' for Inactive)
REMARK    1  A    between atoms: O_1  and  C_9 
REMARK    2  A    between atoms: C_4  and  C_9 
ROOT
HETATM    1  C   UNK N   1      40.301 -22.422 -81.578  0.00  0.00    -0.036 C 
HETATM    2  C   UNK N   1      39.264 -21.253 -81.565  0.00  0.00     0.022 C 
HETATM    3  C   UNK N   1      41.147 -19.499 -81.392  0.00  0.00     0.020 C 
HETATM    4  C   UNK N   1      39.843 -19.926 -82.110  0.00  0.00     0.017 C 
HETATM    5  C   UNK N   1      41.618 -21.948 -80.904  0.00  0.00     0.010 C 
HETATM    6  C   UNK N   1      42.179 -20.652 -81.502  0.00  0.00     0.008 C 
HETATM    7  C   UNK N   1      40.534 -22.855 -83.044  0.00  0.00     0.013 C 
HETATM    8  C   UNK N   1      38.010 -21.582 -82.373  0.00  0.00    -0.083 C 
HETATM    9  C   UNK N   1      39.775 -23.620 -80.743  0.00  0.00     0.016 C 
HETATM   10  C   UNK N   1      39.235 -23.352 -83.701  0.00  0.00     0.028 C 
HETATM   11  C   UNK N   1      38.014 -22.537 -83.334  0.00  0.00    -0.024 C 
HETATM   12  C   UNK N   1      36.741 -20.817 -82.084  0.00  0.00     0.043 C 
ENDROOT
BRANCH   3  13
HETATM   13  C   UNK N   1      41.710 -18.143 -81.959  0.00  0.00     0.054 C 
HETATM   14  C   UNK N   1      41.972 -18.260 -83.479  0.00  0.00     0.045 C 
HETATM   15  C   UNK N   1      43.048 -17.768 -81.276  0.00  0.00     0.045 C 
BRANCH  13  16
HETATM   16  O   UNK N   1      40.768 -17.121 -81.723  0.00  0.00    -0.390 OA
HETATM   17  H   UNK N   1      41.117 -16.276 -82.111  0.00  0.00     0.210 HD
ENDBRANCH  13  16
ENDBRANCH   3  13
TORSDOF 2
ENDMDL
MODEL 4
REMARK VINA RESULT:      -6.4      8.380     10.585
REMARK  2 active torsions:
REMARK  status: ('A' for Active; 'I' for Inactive)
REMARK    1  A    between atoms: O_1  and  C_9 
REMARK    2  A    between atoms: C_4  and  C_9 
ROOT
HETATM    1  C   UNK N   1      30.777 -18.761 -79.245  0.00  0.00    -0.036 C 
HETATM    2  C   UNK N   1      32.084 -19.522 -78.849  0.00  0.00     0.022 C 
HETATM    3  C   UNK N   1      32.805 -19.699 -81.319  0.00  0.00     0.020 C 
HETATM    4  C   UNK N   1      33.227 -19.333 -79.875  0.00  0.00     0.017 C 
HETATM    5  C   UNK N   1      30.410 -19.101 -80.715  0.00  0.00     0.010 C 
HETATM    6  C   UNK N   1      31.558 -18.861 -81.703  0.00  0.00     0.008 C 
HETATM    7  C   UNK N   1      31.015 -17.245 -79.051  0.00  0.00     0.013 C 
HETATM    8  C   UNK N   1      32.610 -19.096 -77.479  0.00  0.00    -0.083 C 
HETATM    9  C   UNK N   1      29.589 -19.233 -78.364  0.00  0.00     0.016 C 
HETATM   10  C   UNK N   1      31.348 -16.906 -77.589  0.00  0.00     0.028 C 
HETATM   11  C   UNK N   1      32.265 -17.910 -76.923  0.00  0.00    -0.024 C 
HETATM   12  C   UNK N   1      33.537 -20.028 -76.738  0.00  0.00     0.043 C 
ENDROOT
BRANCH   3  13
HETATM   13  C   UNK N   1      33.988 -19.506 -82.340  0.00  0.00     0.054 C 
HETATM   14  C   UNK N   1      33.792 -20.422 -83.572  0.00  0.00     0.045 C 
HETATM   15  C   UNK N   1      35.346 -19.870 -81.692  0.00  0.00     0.045 C 
BRANCH  13  16
HETATM   16  O   UNK N   1      34.019 -18.161 -82.757  0.00  0.00    -0.390 OA
HETATM   17  H   UNK N   1      33.484 -17.622 -82.117  0.00  0.00     0.210 HD
ENDBRANCH  13  16
ENDBRANCH   3  13
TORSDOF 2
ENDMDL
MODEL 5
REMARK VINA RESULT:      -6.3      3.070      7.258
REMARK  2 active torsions:
REMARK  status: ('A' for Active; 'I' for Inactive)
REMARK    1  A    between atoms: O_1  and  C_9 
REMARK    2  A    between atoms: C_4  and  C_9 
ROOT
HETATM    1  C   UNK N   1      39.187 -23.130 -82.419  0.00  0.00    -0.036 C 
HETATM    2  C   UNK N   1      38.827 -21.900 -81.525  0.00  0.00     0.022 C 
HETATM    3  C   UNK N   1      38.217 -23.438 -79.545  0.00  0.00     0.020 C 
HETATM    4  C   UNK N   1      38.996 -22.184 -80.013  0.00  0.00     0.017 C 
HETATM    5  C   UNK N   1      38.439 -24.385 -81.893  0.00  0.00     0.010 C 
HETATM    6  C   UNK N   1      38.666 -24.652 -80.401  0.00  0.00     0.008 C 
HETATM    7  C   UNK N   1      40.722 -23.326 -82.389  0.00  0.00     0.013 C 
HETATM    8  C   UNK N   1      39.666 -20.670 -81.865  0.00  0.00    -0.083 C 
HETATM    9  C   UNK N   1      38.707 -22.898 -83.876  0.00  0.00     0.016 C 
HETATM   10  C   UNK N   1      41.461 -22.095 -82.937  0.00  0.00     0.028 C 
HETATM   11  C   UNK N   1      40.854 -20.776 -82.507  0.00  0.00    -0.024 C 
HETATM   12  C   UNK N   1      39.147 -19.309 -81.471  0.00  0.00     0.043 C 
ENDROOT
BRANCH   3  13
HETATM   13  C   UNK N   1      38.398 -23.699 -78.003  0.00  0.00     0.054 C 
HETATM   14  C   UNK N   1      39.120 -25.046 -77.764  0.00  0.00     0.045 C 
HETATM   15  C   UNK N   1      37.026 -23.763 -77.287  0.00  0.00     0.045 C 
BRANCH  13  16
HETATM   16  O   UNK N   1      39.162 -22.653 -77.449  0.00  0.00    -0.390 OA
HETATM   17  H   UNK N   1      39.718 -22.254 -78.169  0.00  0.00     0.210 HD
ENDBRANCH  13  16
ENDBRANCH   3  13
TORSDOF 2
ENDMDL
MODEL 6
REMARK VINA RESULT:      -6.3      5.791      7.917
REMARK  2 active torsions:
REMARK  status: ('A' for Active; 'I' for Inactive)
REMARK    1  A    between atoms: O_1  and  C_9 
REMARK    2  A    between atoms: C_4  and  C_9 
ROOT
HETATM    1  C   UNK N   1      38.107 -21.440 -81.938  0.00  0.00    -0.036 C 
HETATM    2  C   UNK N   1      39.288 -21.805 -82.895  0.00  0.00     0.022 C 
HETATM    3  C   UNK N   1      40.482 -19.579 -82.373  0.00  0.00     0.020 C 
HETATM    4  C   UNK N   1      40.617 -21.116 -82.503  0.00  0.00     0.017 C 
HETATM    5  C   UNK N   1      38.031 -19.897 -81.780  0.00  0.00     0.010 C 
HETATM    6  C   UNK N   1      39.358 -19.260 -81.352  0.00  0.00     0.008 C 
HETATM    7  C   UNK N   1      38.341 -22.142 -80.580  0.00  0.00     0.013 C 
HETATM    8  C   UNK N   1      39.542 -23.310 -82.954  0.00  0.00    -0.083 C 
HETATM    9  C   UNK N   1      36.756 -21.897 -82.550  0.00  0.00     0.016 C 
HETATM   10  C   UNK N   1      38.386 -23.671 -80.733  0.00  0.00     0.028 C 
HETATM   11  C   UNK N   1      39.125 -24.140 -81.969  0.00  0.00    -0.024 C 
HETATM   12  C   UNK N   1      40.278 -23.874 -84.145  0.00  0.00     0.043 C 
ENDROOT
BRANCH   3  13
HETATM   13  C   UNK N   1      41.849 -18.902 -81.983  0.00  0.00     0.054 C 
HETATM   14  C   UNK N   1      42.544 -18.326 -83.239  0.00  0.00     0.045 C 
HETATM   15  C   UNK N   1      42.812 -19.928 -81.336  0.00  0.00     0.045 C 
BRANCH  13  16
HETATM   16  O   UNK N   1      41.599 -17.860 -81.067  0.00  0.00    -0.390 OA
HETATM   17  H   UNK N   1      40.821 -17.336 -81.392  0.00  0.00     0.210 HD
ENDBRANCH  13  16
ENDBRANCH   3  13
TORSDOF 2
ENDMDL
MODEL 7
REMARK VINA RESULT:      -6.1      2.600      7.165
REMARK  2 active torsions:
REMARK  status: ('A' for Active; 'I' for Inactive)
REMARK    1  A    between atoms: O_1  and  C_9 
REMARK    2  A    between atoms: C_4  and  C_9 
ROOT
HETATM    1  C   UNK N   1      39.117 -22.582 -81.788  0.00  0.00    -0.036 C 
HETATM    2  C   UNK N   1      37.661 -22.742 -81.243  0.00  0.00     0.022 C 
HETATM    3  C   UNK N   1      38.491 -24.169 -79.262  0.00  0.00     0.020 C 
HETATM    4  C   UNK N   1      37.611 -22.979 -79.715  0.00  0.00     0.017 C 
HETATM    5  C   UNK N   1      39.991 -23.756 -81.271  0.00  0.00     0.010 C 
HETATM    6  C   UNK N   1      39.944 -23.930 -79.748  0.00  0.00     0.008 C 
HETATM    7  C   UNK N   1      39.667 -21.213 -81.322  0.00  0.00     0.013 C 
HETATM    8  C   UNK N   1      36.788 -21.528 -81.556  0.00  0.00    -0.083 C 
HETATM    9  C   UNK N   1      39.126 -22.662 -83.338  0.00  0.00     0.016 C 
HETATM   10  C   UNK N   1      38.818 -20.049 -81.859  0.00  0.00     0.028 C 
HETATM   11  C   UNK N   1      37.328 -20.317 -81.835  0.00  0.00    -0.024 C 
HETATM   12  C   UNK N   1      35.288 -21.694 -81.551  0.00  0.00     0.043 C 
ENDROOT
BRANCH   3  13
HETATM   13  C   UNK N   1      38.415 -24.394 -77.705  0.00  0.00     0.054 C 
HETATM   14  C   UNK N   1      38.664 -25.882 -77.362  0.00  0.00     0.045 C 
HETATM   15  C   UNK N   1      37.019 -24.009 -77.156  0.00  0.00     0.045 C 
BRANCH  13  16
HETATM   16  O   UNK N   1      39.395 -23.598 -77.079  0.00  0.00    -0.390 OA
HETATM   17  H   UNK N   1      38.949 -23.026 -76.402  0.00  0.00     0.210 HD
ENDBRANCH  13  16
ENDBRANCH   3  13
TORSDOF 2
ENDMDL
MODEL 8
REMARK VINA RESULT:      -6.0      9.990     12.093
REMARK  2 active torsions:
REMARK  status: ('A' for Active; 'I' for Inactive)
REMARK    1  A    between atoms: O_1  and  C_9 
REMARK    2  A    between atoms: C_4  and  C_9 
ROOT
HETATM    1  C   UNK N   1      31.781 -19.117 -79.188  0.00  0.00    -0.036 C 
HETATM    2  C   UNK N   1      30.522 -19.762 -78.526  0.00  0.00     0.022 C 
HETATM    3  C   UNK N   1      30.899 -18.421 -76.355  0.00  0.00     0.020 C 
HETATM    4  C   UNK N   1      29.885 -18.864 -77.438  0.00  0.00     0.017 C 
HETATM    5  C   UNK N   1      32.753 -18.630 -78.080  0.00  0.00     0.010 C 
HETATM    6  C   UNK N   1      32.091 -17.710 -77.047  0.00  0.00     0.008 C 
HETATM    7  C   UNK N   1      31.316 -17.951 -80.093  0.00  0.00     0.013 C 
HETATM    8  C   UNK N   1      29.437 -20.099 -79.547  0.00  0.00    -0.083 C 
HETATM    9  C   UNK N   1      32.550 -20.172 -80.028  0.00  0.00     0.016 C 
HETATM   10  C   UNK N   1      30.378 -18.439 -81.209  0.00  0.00     0.028 C 
HETATM   11  C   UNK N   1      29.388 -19.493 -80.757  0.00  0.00    -0.024 C 
HETATM   12  C   UNK N   1      28.399 -21.134 -79.187  0.00  0.00     0.043 C 
ENDROOT
BRANCH   3  13
HETATM   13  C   UNK N   1      30.224 -17.517 -75.257  0.00  0.00     0.054 C 
HETATM   14  C   UNK N   1      31.078 -17.507 -73.966  0.00  0.00     0.045 C 
HETATM   15  C   UNK N   1      28.816 -18.047 -74.889  0.00  0.00     0.045 C 
BRANCH  13  16
HETATM   16  O   UNK N   1      30.109 -16.202 -75.753  0.00  0.00    -0.390 OA
HETATM   17  H   UNK N   1      30.053 -16.245 -76.743  0.00  0.00     0.210 HD
ENDBRANCH  13  16
ENDBRANCH   3  13
TORSDOF 2
ENDMDL
MODEL 9
REMARK VINA RESULT:      -5.9      3.646      6.853
REMARK  2 active torsions:
REMARK  status: ('A' for Active; 'I' for Inactive)
REMARK    1  A    between atoms: O_1  and  C_9 
REMARK    2  A    between atoms: C_4  and  C_9 
ROOT
HETATM    1  C   UNK N   1      39.182 -23.571 -82.157  0.00  0.00    -0.036 C 
HETATM    2  C   UNK N   1      39.752 -24.035 -80.779  0.00  0.00     0.022 C 
HETATM    3  C   UNK N   1      42.075 -23.064 -81.341  0.00  0.00     0.020 C 
HETATM    4  C   UNK N   1      40.939 -23.168 -80.294  0.00  0.00     0.017 C 
HETATM    5  C   UNK N   1      40.348 -23.418 -83.171  0.00  0.00     0.010 C 
HETATM    6  C   UNK N   1      41.483 -22.519 -82.667  0.00  0.00     0.008 C 
HETATM    7  C   UNK N   1      38.426 -22.237 -81.952  0.00  0.00     0.013 C 
HETATM    8  C   UNK N   1      38.690 -24.029 -79.680  0.00  0.00    -0.083 C 
HETATM    9  C   UNK N   1      38.222 -24.646 -82.735  0.00  0.00     0.016 C 
HETATM   10  C   UNK N   1      37.253 -22.396 -80.971  0.00  0.00     0.028 C 
HETATM   11  C   UNK N   1      37.564 -23.284 -79.785  0.00  0.00    -0.024 C 
HETATM   12  C   UNK N   1      38.913 -24.880 -78.454  0.00  0.00     0.043 C 
ENDROOT
BRANCH   3  13
HETATM   13  C   UNK N   1      43.272 -22.185 -80.819  0.00  0.00     0.054 C 
HETATM   14  C   UNK N   1      43.859 -21.334 -81.971  0.00  0.00     0.045 C 
HETATM   15  C   UNK N   1      44.410 -23.073 -80.260  0.00  0.00     0.045 C 
BRANCH  13  16
HETATM   16  O   UNK N   1      42.805 -21.333 -79.798  0.00  0.00    -0.390 OA
HETATM   17  H   UNK N   1      43.282 -21.560 -78.958  0.00  0.00     0.210 HD
ENDBRANCH  13  16
ENDBRANCH   3  13
TORSDOF 2
ENDMDL
