MODEL 1
REMARK VINA RESULT:      -5.7      0.000      0.000
REMARK  3 active torsions:
REMARK  status: ('A' for Active; 'I' for Inactive)
REMARK    1  A    between atoms: O_2  and  C_7 
REMARK    2  A    between atoms: C_3  and  C_7 
REMARK    3  A    between atoms: C_4  and  C_11 
ROOT
HETATM    1  O   UNK N   1      31.318 -18.824 -76.371  0.00  0.00    -0.368 OA
HETATM    2  C   UNK N   1      30.224 -17.925 -76.350  0.00  0.00     0.156 C 
HETATM    3  C   UNK N   1      32.053 -18.571 -77.562  0.00  0.00     0.075 C 
HETATM    4  C   UNK N   1      30.563 -16.790 -77.318  0.00  0.00     0.038 C 
HETATM    5  C   UNK N   1      31.226 -17.585 -78.397  0.00  0.00     0.044 C 
HETATM    6  C   UNK N   1      33.422 -17.985 -77.167  0.00  0.00     0.050 C 
ENDROOT
BRANCH   2   7
HETATM    7  C   UNK N   1      29.943 -17.444 -74.901  0.00  0.00     0.076 C 
HETATM    8  C   UNK N   1      31.118 -17.865 -73.992  0.00  0.00     0.048 C 
HETATM    9  C   UNK N   1      28.635 -18.063 -74.367  0.00  0.00     0.048 C 
BRANCH   7  10
HETATM   10  O   UNK N   1      29.839 -16.040 -74.910  0.00  0.00    -0.388 OA
HETATM   11  H   UNK N   1      29.703 -15.745 -75.849  0.00  0.00     0.210 HD
ENDBRANCH   7  10
ENDBRANCH   2   7
BRANCH   3  12
HETATM   12  C   UNK N   1      32.280 -19.841 -78.360  0.00  0.00     0.000 C 
HETATM   13  C   UNK N   1      31.275 -20.603 -78.806  0.00  0.00     0.010 C 
ENDBRANCH   3  12
TORSDOF 3
ENDMDL
MODEL 2
REMARK VINA RESULT:      -5.6      1.395      4.328
REMARK  3 active torsions:
REMARK  status: ('A' for Active; 'I' for Inactive)
REMARK    1  A    between atoms: O_2  and  C_7 
REMARK    2  A    between atoms: C_3  and  C_7 
REMARK    3  A    between atoms: C_4  and  C_11 
ROOT
HETATM    1  O   UNK N   1      29.978 -18.168 -76.270  0.00  0.00    -0.368 OA
HETATM    2  C   UNK N   1      31.231 -18.698 -76.664  0.00  0.00     0.156 C 
HETATM    3  C   UNK N   1      30.092 -17.776 -74.908  0.00  0.00     0.075 C 
HETATM    4  C   UNK N   1      32.264 -18.192 -75.656  0.00  0.00     0.038 C 
HETATM    5  C   UNK N   1      31.448 -18.288 -74.407  0.00  0.00     0.044 C 
HETATM    6  C   UNK N   1      29.996 -16.240 -74.841  0.00  0.00     0.050 C 
ENDROOT
BRANCH   2   7
HETATM    7  C   UNK N   1      31.549 -18.308 -78.133  0.00  0.00     0.076 C 
HETATM    8  C   UNK N   1      31.213 -16.816 -78.343  0.00  0.00     0.048 C 
HETATM    9  C   UNK N   1      30.723 -19.163 -79.115  0.00  0.00     0.048 C 
BRANCH   7  10
HETATM   10  O   UNK N   1      32.924 -18.514 -78.360  0.00  0.00    -0.388 OA
HETATM   11  H   UNK N   1      33.155 -18.124 -79.244  0.00  0.00     0.210 HD
ENDBRANCH   7  10
ENDBRANCH   2   7
BRANCH   3  12
HETATM   12  C   UNK N   1      28.984 -18.371 -74.061  0.00  0.00     0.000 C 
HETATM   13  C   UNK N   1      29.171 -18.755 -72.792  0.00  0.00     0.010 C 
ENDBRANCH   3  12
TORSDOF 3
ENDMDL
MODEL 3
REMARK VINA RESULT:      -5.3      9.207     11.107
REMARK  3 active torsions:
REMARK  status: ('A' for Active; 'I' for Inactive)
REMARK    1  A    between atoms: O_2  and  C_7 
REMARK    2  A    between atoms: C_3  and  C_7 
REMARK    3  A    between atoms: C_4  and  C_11 
ROOT
HETATM    1  O   UNK N   1      39.702 -25.074 -75.998  0.00  0.00    -0.368 OA
HETATM    2  C   UNK N   1      38.797 -24.003 -76.197  0.00  0.00     0.156 C 
HETATM    3  C   UNK N   1      39.239 -25.819 -74.879  0.00  0.00     0.075 C 
HETATM    4  C   UNK N   1      37.504 -24.373 -75.470  0.00  0.00     0.038 C 
HETATM    5  C   UNK N   1      38.089 -25.020 -74.255  0.00  0.00     0.044 C 
HETATM    6  C   UNK N   1      38.777 -27.201 -75.379  0.00  0.00     0.050 C 
ENDROOT
BRANCH   2   7
HETATM    7  C   UNK N   1      38.603 -23.729 -77.713  0.00  0.00     0.076 C 
HETATM    8  C   UNK N   1      37.094 -23.606 -78.015  0.00  0.00     0.048 C 
HETATM    9  C   UNK N   1      39.202 -24.875 -78.554  0.00  0.00     0.048 C 
BRANCH   7  10
HETATM   10  O   UNK N   1      39.245 -22.517 -78.032  0.00  0.00    -0.388 OA
HETATM   11  H   UNK N   1      38.942 -22.232 -78.934  0.00  0.00     0.210 HD
ENDBRANCH   7  10
ENDBRANCH   2   7
BRANCH   3  12
HETATM   12  C   UNK N   1      40.334 -26.016 -73.848  0.00  0.00     0.000 C 
HETATM   13  C   UNK N   1      41.635 -25.903 -74.142  0.00  0.00     0.010 C 
ENDBRANCH   3  12
TORSDOF 3
ENDMDL
MODEL 4
REMARK VINA RESULT:      -5.1     10.731     12.465
REMARK  3 active torsions:
REMARK  status: ('A' for Active; 'I' for Inactive)
REMARK    1  A    between atoms: O_2  and  C_7 
REMARK    2  A    between atoms: C_3  and  C_7 
REMARK    3  A    between atoms: C_4  and  C_11 
ROOT
HETATM    1  O   UNK N   1      40.137 -25.311 -75.603  0.00  0.00    -0.368 OA
HETATM    2  C   UNK N   1      40.604 -26.643 -75.487  0.00  0.00     0.156 C 
HETATM    3  C   UNK N   1      38.894 -25.354 -76.291  0.00  0.00     0.075 C 
HETATM    4  C   UNK N   1      39.396 -27.557 -75.701  0.00  0.00     0.038 C 
HETATM    5  C   UNK N   1      38.707 -26.794 -76.787  0.00  0.00     0.044 C 
HETATM    6  C   UNK N   1      37.785 -24.935 -75.308  0.00  0.00     0.050 C 
ENDROOT
BRANCH   2   7
HETATM    7  C   UNK N   1      41.311 -26.855 -74.121  0.00  0.00     0.076 C 
HETATM    8  C   UNK N   1      42.468 -27.861 -74.301  0.00  0.00     0.048 C 
HETATM    9  C   UNK N   1      40.319 -27.396 -73.072  0.00  0.00     0.048 C 
BRANCH   7  10
HETATM   10  O   UNK N   1      41.830 -25.617 -73.693  0.00  0.00    -0.388 OA
HETATM   11  H   UNK N   1      42.820 -25.692 -73.654  0.00  0.00     0.210 HD
ENDBRANCH   7  10
ENDBRANCH   2   7
BRANCH   3  12
HETATM   12  C   UNK N   1      38.877 -24.408 -77.476  0.00  0.00     0.000 C 
HETATM   13  C   UNK N   1      39.158 -24.805 -78.723  0.00  0.00     0.010 C 
ENDBRANCH   3  12
TORSDOF 3
ENDMDL
MODEL 5
REMARK VINA RESULT:      -5.1      5.734      7.702
REMARK  3 active torsions:
REMARK  status: ('A' for Active; 'I' for Inactive)
REMARK    1  A    between atoms: O_2  and  C_7 
REMARK    2  A    between atoms: C_3  and  C_7 
REMARK    3  A    between atoms: C_4  and  C_11 
ROOT
HETATM    1  O   UNK N   1      34.860 -20.177 -71.525  0.00  0.00    -0.368 OA
HETATM    2  C   UNK N   1      35.769 -20.536 -72.551  0.00  0.00     0.156 C 
HETATM    3  C   UNK N   1      33.551 -20.236 -72.077  0.00  0.00     0.075 C 
HETATM    4  C   UNK N   1      34.961 -21.275 -73.619  0.00  0.00     0.038 C 
HETATM    5  C   UNK N   1      33.711 -20.456 -73.586  0.00  0.00     0.044 C 
HETATM    6  C   UNK N   1      32.796 -21.396 -71.401  0.00  0.00     0.050 C 
ENDROOT
BRANCH   2   7
HETATM    7  C   UNK N   1      36.944 -21.367 -71.971  0.00  0.00     0.076 C 
HETATM    8  C   UNK N   1      36.483 -22.054 -70.667  0.00  0.00     0.048 C 
HETATM    9  C   UNK N   1      38.156 -20.462 -71.672  0.00  0.00     0.048 C 
BRANCH   7  10
HETATM   10  O   UNK N   1      37.303 -22.349 -72.915  0.00  0.00    -0.388 OA
HETATM   11  H   UNK N   1      36.470 -22.749 -73.280  0.00  0.00     0.210 HD
ENDBRANCH   7  10
ENDBRANCH   2   7
BRANCH   3  12
HETATM   12  C   UNK N   1      32.784 -18.950 -71.834  0.00  0.00     0.000 C 
HETATM   13  C   UNK N   1      32.609 -18.432 -70.612  0.00  0.00     0.010 C 
ENDBRANCH   3  12
TORSDOF 3
ENDMDL
MODEL 6
REMARK VINA RESULT:      -5.1      1.642      4.670
REMARK  3 active torsions:
REMARK  status: ('A' for Active; 'I' for Inactive)
REMARK    1  A    between atoms: O_2  and  C_7 
REMARK    2  A    between atoms: C_3  and  C_7 
REMARK    3  A    between atoms: C_4  and  C_11 
ROOT
HETATM    1  O   UNK N   1      31.047 -19.169 -77.662  0.00  0.00    -0.368 OA
HETATM    2  C   UNK N   1      32.303 -19.781 -77.898  0.00  0.00     0.156 C 
HETATM    3  C   UNK N   1      31.283 -17.995 -76.896  0.00  0.00     0.075 C 
HETATM    4  C   UNK N   1      33.369 -18.709 -77.664  0.00  0.00     0.038 C 
HETATM    5  C   UNK N   1      32.761 -18.019 -76.485  0.00  0.00     0.044 C 
HETATM    6  C   UNK N   1      30.948 -16.773 -77.771  0.00  0.00     0.050 C 
ENDROOT
BRANCH   2   7
HETATM    7  C   UNK N   1      32.346 -20.403 -79.320  0.00  0.00     0.076 C 
HETATM    8  C   UNK N   1      32.865 -19.347 -80.318  0.00  0.00     0.048 C 
HETATM    9  C   UNK N   1      30.941 -20.870 -79.752  0.00  0.00     0.048 C 
BRANCH   7  10
HETATM   10  O   UNK N   1      33.228 -21.500 -79.298  0.00  0.00    -0.388 OA
HETATM   11  H   UNK N   1      33.840 -21.392 -78.523  0.00  0.00     0.210 HD
ENDBRANCH   7  10
ENDBRANCH   2   7
BRANCH   3  12
HETATM   12  C   UNK N   1      30.416 -17.955 -75.652  0.00  0.00     0.000 C 
HETATM   13  C   UNK N   1      30.921 -18.037 -74.415  0.00  0.00     0.010 C 
ENDBRANCH   3  12
TORSDOF 3
ENDMDL
MODEL 7
REMARK VINA RESULT:      -4.9     12.174     14.060
REMARK  3 active torsions:
REMARK  status: ('A' for Active; 'I' for Inactive)
REMARK    1  A    between atoms: O_2  and  C_7 
REMARK    2  A    between atoms: C_3  and  C_7 
REMARK    3  A    between atoms: C_4  and  C_11 
ROOT
HETATM    1  O   UNK N   1      39.718 -27.652 -74.784  0.00  0.00    -0.368 OA
HETATM    2  C   UNK N   1      40.941 -28.180 -74.302  0.00  0.00     0.156 C 
HETATM    3  C   UNK N   1      39.786 -26.237 -74.655  0.00  0.00     0.075 C 
HETATM    4  C   UNK N   1      41.953 -27.033 -74.310  0.00  0.00     0.038 C 
HETATM    5  C   UNK N   1      41.060 -25.921 -73.862  0.00  0.00     0.044 C 
HETATM    6  C   UNK N   1      39.820 -25.627 -76.069  0.00  0.00     0.050 C 
ENDROOT
BRANCH   2   7
HETATM    7  C   UNK N   1      41.378 -29.403 -75.152  0.00  0.00     0.076 C 
HETATM    8  C   UNK N   1      42.681 -29.987 -74.564  0.00  0.00     0.048 C 
HETATM    9  C   UNK N   1      41.618 -28.989 -76.618  0.00  0.00     0.048 C 
BRANCH   7  10
HETATM   10  O   UNK N   1      40.360 -30.374 -75.090  0.00  0.00    -0.388 OA
HETATM   11  H   UNK N   1      39.758 -30.145 -74.334  0.00  0.00     0.210 HD
ENDBRANCH   7  10
ENDBRANCH   2   7
BRANCH   3  12
HETATM   12  C   UNK N   1      38.582 -25.685 -73.916  0.00  0.00     0.000 C 
HETATM   13  C   UNK N   1      37.989 -24.534 -74.256  0.00  0.00     0.010 C 
ENDBRANCH   3  12
TORSDOF 3
ENDMDL
MODEL 8
REMARK VINA RESULT:      -4.8      9.997     11.507
REMARK  3 active torsions:
REMARK  status: ('A' for Active; 'I' for Inactive)
REMARK    1  A    between atoms: O_2  and  C_7 
REMARK    2  A    between atoms: C_3  and  C_7 
REMARK    3  A    between atoms: C_4  and  C_11 
ROOT
HETATM    1  O   UNK N   1      39.694 -25.214 -74.996  0.00  0.00    -0.368 OA
HETATM    2  C   UNK N   1      38.484 -25.102 -74.268  0.00  0.00     0.156 C 
HETATM    3  C   UNK N   1      40.141 -26.558 -74.875  0.00  0.00     0.075 C 
HETATM    4  C   UNK N   1      37.944 -26.522 -74.086  0.00  0.00     0.038 C 
HETATM    5  C   UNK N   1      39.233 -27.240 -73.844  0.00  0.00     0.044 C 
HETATM    6  C   UNK N   1      40.041 -27.224 -76.261  0.00  0.00     0.050 C 
ENDROOT
BRANCH   2   7
HETATM    7  C   UNK N   1      37.498 -24.149 -74.995  0.00  0.00     0.076 C 
HETATM    8  C   UNK N   1      38.075 -23.784 -76.380  0.00  0.00     0.048 C 
HETATM    9  C   UNK N   1      37.282 -22.861 -74.174  0.00  0.00     0.048 C 
BRANCH   7  10
HETATM   10  O   UNK N   1      36.271 -24.820 -75.161  0.00  0.00    -0.388 OA
HETATM   11  H   UNK N   1      36.219 -25.545 -74.484  0.00  0.00     0.210 HD
ENDBRANCH   7  10
ENDBRANCH   2   7
BRANCH   3  12
HETATM   12  C   UNK N   1      41.580 -26.629 -74.404  0.00  0.00     0.000 C 
HETATM   13  C   UNK N   1      42.260 -27.779 -74.325  0.00  0.00     0.010 C 
ENDBRANCH   3  12
TORSDOF 3
ENDMDL
MODEL 9
REMARK VINA RESULT:      -4.8      1.673      4.626
REMARK  3 active torsions:
REMARK  status: ('A' for Active; 'I' for Inactive)
REMARK    1  A    between atoms: O_2  and  C_7 
REMARK    2  A    between atoms: C_3  and  C_7 
REMARK    3  A    between atoms: C_4  and  C_11 
ROOT
HETATM    1  O   UNK N   1      31.280 -18.928 -77.414  0.00  0.00    -0.368 OA
HETATM    2  C   UNK N   1      31.933 -18.245 -78.469  0.00  0.00     0.156 C 
HETATM    3  C   UNK N   1      30.313 -18.040 -76.867  0.00  0.00     0.075 C 
HETATM    4  C   UNK N   1      31.026 -17.081 -78.873  0.00  0.00     0.038 C 
HETATM    5  C   UNK N   1      30.545 -16.670 -77.518  0.00  0.00     0.044 C 
HETATM    6  C   UNK N   1      28.914 -18.599 -77.183  0.00  0.00     0.050 C 
ENDROOT
BRANCH   2   7
HETATM    7  C   UNK N   1      32.251 -19.221 -79.634  0.00  0.00     0.076 C 
HETATM    8  C   UNK N   1      31.333 -20.457 -79.522  0.00  0.00     0.048 C 
HETATM    9  C   UNK N   1      33.725 -19.669 -79.581  0.00  0.00     0.048 C 
BRANCH   7  10
HETATM   10  O   UNK N   1      31.996 -18.558 -80.851  0.00  0.00    -0.388 OA
HETATM   11  H   UNK N   1      32.077 -19.220 -81.588  0.00  0.00     0.210 HD
ENDBRANCH   7  10
ENDBRANCH   2   7
BRANCH   3  12
HETATM   12  C   UNK N   1      30.458 -17.913 -75.362  0.00  0.00     0.000 C 
HETATM   13  C   UNK N   1      29.953 -16.884 -74.671  0.00  0.00     0.010 C 
ENDBRANCH   3  12
TORSDOF 3
ENDMDL
