MODEL 1
REMARK VINA RESULT:      -6.1      0.000      0.000
REMARK  5 active torsions:
REMARK  status: ('A' for Active; 'I' for Inactive)
REMARK    1  A    between atoms: O_1  and  C_2 
REMARK    2  A    between atoms: C_2  and  C_3 
REMARK    3  A    between atoms: C_2  and  C_6 
REMARK    4  A    between atoms: C_3  and  C_4 
REMARK    5  A    between atoms: C_4  and  C_7 
ROOT
HETATM    1  C   UNK N   1      30.004 -17.459 -74.845  0.00  0.00     0.071 C 
HETATM    2  C   UNK N   1      28.806 -18.074 -74.087  0.00  0.00     0.050 C 
ENDROOT
BRANCH   1   3
HETATM    3  O   UNK N   1      29.790 -16.064 -74.855  0.00  0.00    -0.386 OA
HETATM    4  H   UNK N   1      29.626 -15.761 -73.925  0.00  0.00     0.211 HD
ENDBRANCH   1   3
BRANCH   1   5
HETATM    5  C   UNK N   1      31.339 -17.753 -74.094  0.00  0.00     0.045 C 
BRANCH   5   6
HETATM    6  C   UNK N   1      31.207 -18.676 -72.865  0.00  0.00     0.030 C 
BRANCH   6   7
HETATM    7  C   UNK N   1      32.474 -19.467 -72.636  0.00  0.00    -0.025 C 
HETATM    8  C   UNK N   1      33.196 -19.472 -71.488  0.00  0.00    -0.091 C 
HETATM    9  C   UNK N   1      34.439 -20.322 -71.400  0.00  0.00     0.042 C 
HETATM   10  C   UNK N   1      32.842 -18.638 -70.279  0.00  0.00     0.042 C 
ENDBRANCH   6   7
ENDBRANCH   5   6
ENDBRANCH   1   5
BRANCH   1  11
HETATM   11  C   UNK N   1      30.119 -17.934 -76.293  0.00  0.00    -0.000 C 
HETATM   12  C   UNK N   1      30.689 -17.239 -77.291  0.00  0.00     0.010 C 
ENDBRANCH   1  11
TORSDOF 5
ENDMDL
MODEL 2
REMARK VINA RESULT:      -6.1      3.862      6.810
REMARK  5 active torsions:
REMARK  status: ('A' for Active; 'I' for Inactive)
REMARK    1  A    between atoms: O_1  and  C_2 
REMARK    2  A    between atoms: C_2  and  C_3 
REMARK    3  A    between atoms: C_2  and  C_6 
REMARK    4  A    between atoms: C_3  and  C_4 
REMARK    5  A    between atoms: C_4  and  C_7 
ROOT
HETATM    1  C   UNK N   1      36.972 -21.508 -72.728  0.00  0.00     0.071 C 
HETATM    2  C   UNK N   1      37.276 -22.977 -73.097  0.00  0.00     0.050 C 
ENDROOT
BRANCH   1   3
HETATM    3  O   UNK N   1      37.819 -20.715 -73.533  0.00  0.00    -0.386 OA
HETATM    4  H   UNK N   1      38.669 -20.562 -73.045  0.00  0.00     0.211 HD
ENDBRANCH   1   3
BRANCH   1   5
HETATM    5  C   UNK N   1      35.491 -21.152 -73.059  0.00  0.00     0.045 C 
BRANCH   5   6
HETATM    6  C   UNK N   1      34.627 -20.756 -71.843  0.00  0.00     0.030 C 
BRANCH   6   7
HETATM    7  C   UNK N   1      33.260 -20.280 -72.276  0.00  0.00    -0.025 C 
HETATM    8  C   UNK N   1      32.523 -19.336 -71.639  0.00  0.00    -0.091 C 
HETATM    9  C   UNK N   1      31.174 -18.952 -72.195  0.00  0.00     0.042 C 
HETATM   10  C   UNK N   1      32.964 -18.657 -70.364  0.00  0.00     0.042 C 
ENDBRANCH   6   7
ENDBRANCH   5   6
ENDBRANCH   1   5
BRANCH   1  11
HETATM   11  C   UNK N   1      37.260 -21.175 -71.264  0.00  0.00    -0.000 C 
HETATM   12  C   UNK N   1      38.187 -20.301 -70.838  0.00  0.00     0.010 C 
ENDBRANCH   1  11
TORSDOF 5
ENDMDL
MODEL 3
REMARK VINA RESULT:      -6.0      3.743      6.779
REMARK  5 active torsions:
REMARK  status: ('A' for Active; 'I' for Inactive)
REMARK    1  A    between atoms: O_1  and  C_2 
REMARK    2  A    between atoms: C_2  and  C_3 
REMARK    3  A    between atoms: C_2  and  C_6 
REMARK    4  A    between atoms: C_3  and  C_4 
REMARK    5  A    between atoms: C_4  and  C_7 
ROOT
HETATM    1  C   UNK N   1      36.842 -21.414 -71.555  0.00  0.00     0.071 C 
HETATM    2  C   UNK N   1      37.983 -20.454 -71.149  0.00  0.00     0.050 C 
ENDROOT
BRANCH   1   3
HETATM    3  O   UNK N   1      36.287 -21.898 -70.350  0.00  0.00    -0.386 OA
HETATM    4  H   UNK N   1      35.317 -22.053 -70.487  0.00  0.00     0.211 HD
ENDBRANCH   1   3
BRANCH   1   5
HETATM    5  C   UNK N   1      35.734 -20.650 -72.343  0.00  0.00     0.045 C 
BRANCH   5   6
HETATM    6  C   UNK N   1      34.290 -20.924 -71.870  0.00  0.00     0.030 C 
BRANCH   6   7
HETATM    7  C   UNK N   1      33.290 -20.138 -72.686  0.00  0.00    -0.025 C 
HETATM    8  C   UNK N   1      32.545 -19.103 -72.225  0.00  0.00    -0.091 C 
HETATM    9  C   UNK N   1      31.592 -18.403 -73.161  0.00  0.00     0.042 C 
HETATM   10  C   UNK N   1      32.589 -18.620 -70.794  0.00  0.00     0.042 C 
ENDBRANCH   6   7
ENDBRANCH   5   6
ENDBRANCH   1   5
BRANCH   1  11
HETATM   11  C   UNK N   1      37.315 -22.613 -72.376  0.00  0.00    -0.000 C 
HETATM   12  C   UNK N   1      37.038 -22.817 -73.675  0.00  0.00     0.010 C 
ENDBRANCH   1  11
TORSDOF 5
ENDMDL
MODEL 4
REMARK VINA RESULT:      -5.5      2.468      4.919
REMARK  5 active torsions:
REMARK  status: ('A' for Active; 'I' for Inactive)
REMARK    1  A    between atoms: O_1  and  C_2 
REMARK    2  A    between atoms: C_2  and  C_3 
REMARK    3  A    between atoms: C_2  and  C_6 
REMARK    4  A    between atoms: C_3  and  C_4 
REMARK    5  A    between atoms: C_4  and  C_7 
ROOT
HETATM    1  C   UNK N   1      30.026 -17.488 -74.921  0.00  0.00     0.071 C 
HETATM    2  C   UNK N   1      31.415 -17.788 -74.315  0.00  0.00     0.050 C 
ENDROOT
BRANCH   1   3
HETATM    3  O   UNK N   1      29.869 -16.086 -74.872  0.00  0.00    -0.386 OA
HETATM    4  H   UNK N   1      30.755 -15.673 -74.705  0.00  0.00     0.211 HD
ENDBRANCH   1   3
BRANCH   1   5
HETATM    5  C   UNK N   1      29.964 -17.945 -76.410  0.00  0.00     0.045 C 
BRANCH   5   6
HETATM    6  C   UNK N   1      30.876 -17.155 -77.373  0.00  0.00     0.030 C 
BRANCH   6   7
HETATM    7  C   UNK N   1      31.501 -18.066 -78.405  0.00  0.00    -0.025 C 
HETATM    8  C   UNK N   1      32.742 -18.605 -78.322  0.00  0.00    -0.091 C 
HETATM    9  C   UNK N   1      33.231 -19.509 -79.427  0.00  0.00     0.042 C 
HETATM   10  C   UNK N   1      33.697 -18.323 -77.186  0.00  0.00     0.042 C 
ENDBRANCH   6   7
ENDBRANCH   5   6
ENDBRANCH   1   5
BRANCH   1  11
HETATM   11  C   UNK N   1      28.872 -18.124 -74.145  0.00  0.00    -0.000 C 
HETATM   12  C   UNK N   1      28.982 -18.711 -72.942  0.00  0.00     0.010 C 
ENDBRANCH   1  11
TORSDOF 5
ENDMDL
MODEL 5
REMARK VINA RESULT:      -5.4      1.266      2.064
REMARK  5 active torsions:
REMARK  status: ('A' for Active; 'I' for Inactive)
REMARK    1  A    between atoms: O_1  and  C_2 
REMARK    2  A    between atoms: C_2  and  C_3 
REMARK    3  A    between atoms: C_2  and  C_6 
REMARK    4  A    between atoms: C_3  and  C_4 
REMARK    5  A    between atoms: C_4  and  C_7 
ROOT
HETATM    1  C   UNK N   1      29.958 -17.839 -74.979  0.00  0.00     0.071 C 
HETATM    2  C   UNK N   1      30.029 -16.302 -74.834  0.00  0.00     0.050 C 
ENDROOT
BRANCH   1   3
HETATM    3  O   UNK N   1      29.546 -18.091 -76.305  0.00  0.00    -0.386 OA
HETATM    4  H   UNK N   1      29.366 -17.224 -76.752  0.00  0.00     0.211 HD
ENDBRANCH   1   3
BRANCH   1   5
HETATM    5  C   UNK N   1      31.364 -18.478 -74.762  0.00  0.00     0.045 C 
BRANCH   5   6
HETATM    6  C   UNK N   1      32.016 -18.170 -73.397  0.00  0.00     0.030 C 
BRANCH   6   7
HETATM    7  C   UNK N   1      32.800 -19.358 -72.887  0.00  0.00    -0.025 C 
HETATM    8  C   UNK N   1      33.115 -19.587 -71.588  0.00  0.00    -0.091 C 
HETATM    9  C   UNK N   1      33.896 -20.825 -71.224  0.00  0.00     0.042 C 
HETATM   10  C   UNK N   1      32.753 -18.643 -70.466  0.00  0.00     0.042 C 
ENDBRANCH   6   7
ENDBRANCH   5   6
ENDBRANCH   1   5
BRANCH   1  11
HETATM   11  C   UNK N   1      28.950 -18.494 -74.034  0.00  0.00    -0.000 C 
HETATM   12  C   UNK N   1      29.113 -18.637 -72.709  0.00  0.00     0.010 C 
ENDBRANCH   1  11
TORSDOF 5
ENDMDL
MODEL 6
REMARK VINA RESULT:      -5.4      2.300      4.046
REMARK  5 active torsions:
REMARK  status: ('A' for Active; 'I' for Inactive)
REMARK    1  A    between atoms: O_1  and  C_2 
REMARK    2  A    between atoms: C_2  and  C_3 
REMARK    3  A    between atoms: C_2  and  C_6 
REMARK    4  A    between atoms: C_3  and  C_4 
REMARK    5  A    between atoms: C_4  and  C_7 
ROOT
HETATM    1  C   UNK N   1      31.600 -17.798 -78.031  0.00  0.00     0.071 C 
HETATM    2  C   UNK N   1      31.449 -18.591 -79.348  0.00  0.00     0.050 C 
ENDROOT
BRANCH   1   3
HETATM    3  O   UNK N   1      31.361 -16.445 -78.356  0.00  0.00    -0.386 OA
HETATM    4  H   UNK N   1      31.586 -15.885 -77.569  0.00  0.00     0.211 HD
ENDBRANCH   1   3
BRANCH   1   5
HETATM    5  C   UNK N   1      30.535 -18.256 -76.988  0.00  0.00     0.045 C 
BRANCH   5   6
HETATM    6  C   UNK N   1      30.176 -17.203 -75.917  0.00  0.00     0.030 C 
BRANCH   6   7
HETATM    7  C   UNK N   1      29.436 -17.832 -74.760  0.00  0.00    -0.025 C 
HETATM    8  C   UNK N   1      30.016 -18.334 -73.641  0.00  0.00    -0.091 C 
HETATM    9  C   UNK N   1      29.146 -18.924 -72.559  0.00  0.00     0.042 C 
HETATM   10  C   UNK N   1      31.510 -18.369 -73.423  0.00  0.00     0.042 C 
ENDBRANCH   6   7
ENDBRANCH   5   6
ENDBRANCH   1   5
BRANCH   1  11
HETATM   11  C   UNK N   1      32.994 -17.900 -77.414  0.00  0.00    -0.000 C 
HETATM   12  C   UNK N   1      33.416 -18.899 -76.619  0.00  0.00     0.010 C 
ENDBRANCH   1  11
TORSDOF 5
ENDMDL
MODEL 7
REMARK VINA RESULT:      -5.3      2.662      4.019
REMARK  5 active torsions:
REMARK  status: ('A' for Active; 'I' for Inactive)
REMARK    1  A    between atoms: O_1  and  C_2 
REMARK    2  A    between atoms: C_2  and  C_3 
REMARK    3  A    between atoms: C_2  and  C_6 
REMARK    4  A    between atoms: C_3  and  C_4 
REMARK    5  A    between atoms: C_4  and  C_7 
ROOT
HETATM    1  C   UNK N   1      32.284 -18.584 -77.226  0.00  0.00     0.071 C 
HETATM    2  C   UNK N   1      33.678 -18.632 -77.891  0.00  0.00     0.050 C 
ENDROOT
BRANCH   1   3
HETATM    3  O   UNK N   1      31.478 -19.500 -77.935  0.00  0.00    -0.386 OA
HETATM    4  H   UNK N   1      31.432 -19.216 -78.884  0.00  0.00     0.211 HD
ENDBRANCH   1   3
BRANCH   1   5
HETATM    5  C   UNK N   1      32.368 -19.039 -75.738  0.00  0.00     0.045 C 
BRANCH   5   6
HETATM    6  C   UNK N   1      32.074 -17.935 -74.700  0.00  0.00     0.030 C 
BRANCH   6   7
HETATM    7  C   UNK N   1      31.170 -18.445 -73.601  0.00  0.00    -0.025 C 
HETATM    8  C   UNK N   1      29.816 -18.367 -73.602  0.00  0.00    -0.091 C 
HETATM    9  C   UNK N   1      29.042 -18.931 -72.437  0.00  0.00     0.042 C 
HETATM   10  C   UNK N   1      29.023 -17.707 -74.706  0.00  0.00     0.042 C 
ENDBRANCH   6   7
ENDBRANCH   5   6
ENDBRANCH   1   5
BRANCH   1  11
HETATM   11  C   UNK N   1      31.621 -17.209 -77.301  0.00  0.00    -0.000 C 
HETATM   12  C   UNK N   1      30.707 -16.840 -78.215  0.00  0.00     0.010 C 
ENDBRANCH   1  11
TORSDOF 5
ENDMDL
MODEL 8
REMARK VINA RESULT:      -5.2      7.565      8.752
REMARK  5 active torsions:
REMARK  status: ('A' for Active; 'I' for Inactive)
REMARK    1  A    between atoms: O_1  and  C_2 
REMARK    2  A    between atoms: C_2  and  C_3 
REMARK    3  A    between atoms: C_2  and  C_6 
REMARK    4  A    between atoms: C_3  and  C_4 
REMARK    5  A    between atoms: C_4  and  C_7 
ROOT
HETATM    1  C   UNK N   1      37.976 -24.819 -75.090  0.00  0.00     0.071 C 
HETATM    2  C   UNK N   1      39.439 -25.082 -75.512  0.00  0.00     0.050 C 
ENDROOT
BRANCH   1   3
HETATM    3  O   UNK N   1      37.379 -26.088 -74.928  0.00  0.00    -0.386 OA
HETATM    4  H   UNK N   1      37.991 -26.776 -75.297  0.00  0.00     0.211 HD
ENDBRANCH   1   3
BRANCH   1   5
HETATM    5  C   UNK N   1      37.923 -24.064 -73.727  0.00  0.00     0.045 C 
BRANCH   5   6
HETATM    6  C   UNK N   1      37.044 -22.796 -73.717  0.00  0.00     0.030 C 
BRANCH   6   7
HETATM    7  C   UNK N   1      37.698 -21.684 -72.930  0.00  0.00    -0.025 C 
HETATM    8  C   UNK N   1      37.342 -21.297 -71.680  0.00  0.00    -0.091 C 
HETATM    9  C   UNK N   1      38.095 -20.174 -71.011  0.00  0.00     0.042 C 
HETATM   10  C   UNK N   1      36.193 -21.911 -70.915  0.00  0.00     0.042 C 
ENDBRANCH   6   7
ENDBRANCH   5   6
ENDBRANCH   1   5
BRANCH   1  11
HETATM   11  C   UNK N   1      37.171 -24.044 -76.133  0.00  0.00    -0.000 C 
HETATM   12  C   UNK N   1      37.433 -24.020 -77.450  0.00  0.00     0.010 C 
ENDBRANCH   1  11
TORSDOF 5
ENDMDL
MODEL 9
REMARK VINA RESULT:      -5.1      5.673      8.288
REMARK  5 active torsions:
REMARK  status: ('A' for Active; 'I' for Inactive)
REMARK    1  A    between atoms: O_1  and  C_2 
REMARK    2  A    between atoms: C_2  and  C_3 
REMARK    3  A    between atoms: C_2  and  C_6 
REMARK    4  A    between atoms: C_3  and  C_4 
REMARK    5  A    between atoms: C_4  and  C_7 
ROOT
HETATM    1  C   UNK N   1      36.994 -21.241 -72.436  0.00  0.00     0.071 C 
HETATM    2  C   UNK N   1      37.340 -20.982 -70.952  0.00  0.00     0.050 C 
ENDROOT
BRANCH   1   3
HETATM    3  O   UNK N   1      37.790 -20.349 -73.187  0.00  0.00    -0.386 OA
HETATM    4  H   UNK N   1      38.397 -20.877 -73.768  0.00  0.00     0.211 HD
ENDBRANCH   1   3
BRANCH   1   5
HETATM    5  C   UNK N   1      37.363 -22.701 -72.840  0.00  0.00     0.045 C 
BRANCH   5   6
HETATM    6  C   UNK N   1      36.717 -23.198 -74.151  0.00  0.00     0.030 C 
BRANCH   6   7
HETATM    7  C   UNK N   1      37.767 -23.525 -75.187  0.00  0.00    -0.025 C 
HETATM    8  C   UNK N   1      38.427 -24.705 -75.287  0.00  0.00    -0.091 C 
HETATM    9  C   UNK N   1      39.446 -24.893 -76.384  0.00  0.00     0.042 C 
HETATM   10  C   UNK N   1      38.225 -25.854 -74.327  0.00  0.00     0.042 C 
ENDBRANCH   6   7
ENDBRANCH   5   6
ENDBRANCH   1   5
BRANCH   1  11
HETATM   11  C   UNK N   1      35.528 -20.974 -72.776  0.00  0.00    -0.000 C 
HETATM   12  C   UNK N   1      34.564 -20.705 -71.881  0.00  0.00     0.010 C 
ENDBRANCH   1  11
TORSDOF 5
ENDMDL
