MODEL 1
REMARK VINA RESULT:      -5.3      0.000      0.000
REMARK  0 active torsions:
REMARK  status: ('A' for Active; 'I' for Inactive)
ROOT
HETATM    1  C   UNK N   1      31.508 -19.227 -77.887  0.00  0.00    -0.036 C 
HETATM    2  C   UNK N   1      32.154 -17.883 -78.337  0.00  0.00    -0.002 C 
HETATM    3  C   UNK N   1      31.796 -18.745 -76.439  0.00  0.00     0.022 C 
HETATM    4  C   UNK N   1      32.970 -17.914 -77.018  0.00  0.00     0.015 C 
HETATM    5  C   UNK N   1      31.131 -16.703 -78.214  0.00  0.00     0.033 C 
HETATM    6  C   UNK N   1      30.733 -17.737 -76.003  0.00  0.00    -0.083 C 
HETATM    7  C   UNK N   1      32.369 -20.462 -78.276  0.00  0.00     0.016 C 
HETATM    8  C   UNK N   1      30.049 -19.537 -78.305  0.00  0.00     0.016 C 
HETATM    9  C   UNK N   1      30.418 -16.742 -76.868  0.00  0.00    -0.024 C 
HETATM   10  C   UNK N   1      30.071 -17.858 -74.660  0.00  0.00     0.043 C 
ENDROOT
TORSDOF 0
ENDMDL
MODEL 2
REMARK VINA RESULT:      -5.3     10.123     12.037
REMARK  0 active torsions:
REMARK  status: ('A' for Active; 'I' for Inactive)
ROOT
HETATM    1  C   UNK N   1      40.302 -26.908 -74.343  0.00  0.00    -0.036 C 
HETATM    2  C   UNK N   1      38.921 -26.660 -73.668  0.00  0.00    -0.002 C 
HETATM    3  C   UNK N   1      39.499 -27.049 -75.665  0.00  0.00     0.022 C 
HETATM    4  C   UNK N   1      38.290 -27.504 -74.807  0.00  0.00     0.015 C 
HETATM    5  C   UNK N   1      38.452 -25.181 -73.883  0.00  0.00     0.033 C 
HETATM    6  C   UNK N   1      39.142 -25.666 -76.209  0.00  0.00    -0.083 C 
HETATM    7  C   UNK N   1      40.948 -28.253 -73.903  0.00  0.00     0.016 C 
HETATM    8  C   UNK N   1      41.399 -25.819 -74.236  0.00  0.00     0.016 C 
HETATM    9  C   UNK N   1      38.626 -24.763 -75.339  0.00  0.00    -0.024 C 
HETATM   10  C   UNK N   1      39.357 -25.336 -77.657  0.00  0.00     0.043 C 
ENDROOT
TORSDOF 0
ENDMDL
MODEL 3
REMARK VINA RESULT:      -5.2      1.187      3.174
REMARK  0 active torsions:
REMARK  status: ('A' for Active; 'I' for Inactive)
ROOT
HETATM    1  C   UNK N   1      31.876 -18.058 -76.652  0.00  0.00    -0.036 C 
HETATM    2  C   UNK N   1      30.777 -17.037 -77.071  0.00  0.00    -0.002 C 
HETATM    3  C   UNK N   1      30.984 -19.124 -77.346  0.00  0.00     0.022 C 
HETATM    4  C   UNK N   1      29.767 -18.215 -77.035  0.00  0.00     0.015 C 
HETATM    5  C   UNK N   1      30.942 -16.623 -78.573  0.00  0.00     0.033 C 
HETATM    6  C   UNK N   1      31.185 -19.068 -78.860  0.00  0.00    -0.083 C 
HETATM    7  C   UNK N   1      31.944 -18.263 -75.112  0.00  0.00     0.016 C 
HETATM    8  C   UNK N   1      33.328 -17.846 -77.149  0.00  0.00     0.016 C 
HETATM    9  C   UNK N   1      31.157 -17.849 -79.452  0.00  0.00    -0.024 C 
HETATM   10  C   UNK N   1      31.403 -20.327 -79.649  0.00  0.00     0.043 C 
ENDROOT
TORSDOF 0
ENDMDL
MODEL 4
REMARK VINA RESULT:      -5.2     10.150     11.828
REMARK  0 active torsions:
REMARK  status: ('A' for Active; 'I' for Inactive)
ROOT
HETATM    1  C   UNK N   1      38.992 -26.343 -76.186  0.00  0.00    -0.036 C 
HETATM    2  C   UNK N   1      37.942 -26.200 -75.045  0.00  0.00    -0.002 C 
HETATM    3  C   UNK N   1      39.842 -25.329 -75.371  0.00  0.00     0.022 C 
HETATM    4  C   UNK N   1      38.513 -24.779 -74.792  0.00  0.00     0.015 C 
HETATM    5  C   UNK N   1      38.336 -27.077 -73.808  0.00  0.00     0.033 C 
HETATM    6  C   UNK N   1      40.547 -26.046 -74.220  0.00  0.00    -0.083 C 
HETATM    7  C   UNK N   1      38.496 -25.744 -77.532  0.00  0.00     0.016 C 
HETATM    8  C   UNK N   1      39.578 -27.743 -76.497  0.00  0.00     0.016 C 
HETATM    9  C   UNK N   1      39.808 -26.890 -73.459  0.00  0.00    -0.024 C 
HETATM   10  C   UNK N   1      42.006 -25.811 -73.952  0.00  0.00     0.043 C 
ENDROOT
TORSDOF 0
ENDMDL
MODEL 5
REMARK VINA RESULT:      -5.1     15.508     17.288
REMARK  0 active torsions:
REMARK  status: ('A' for Active; 'I' for Inactive)
ROOT
HETATM    1  C   UNK N   1      45.275 -10.008 -70.756  0.00  0.00    -0.036 C 
HETATM    2  C   UNK N   1      44.286  -9.399 -71.793  0.00  0.00    -0.002 C 
HETATM    3  C   UNK N   1      45.143 -11.321 -71.575  0.00  0.00     0.022 C 
HETATM    4  C   UNK N   1      43.735 -10.834 -72.005  0.00  0.00     0.015 C 
HETATM    5  C   UNK N   1      45.033  -8.998 -73.110  0.00  0.00     0.033 C 
HETATM    6  C   UNK N   1      46.021 -11.247 -72.825  0.00  0.00    -0.083 C 
HETATM    7  C   UNK N   1      44.650 -10.136 -69.338  0.00  0.00     0.016 C 
HETATM    8  C   UNK N   1      46.673  -9.362 -70.581  0.00  0.00     0.016 C 
HETATM    9  C   UNK N   1      45.958 -10.117 -73.571  0.00  0.00    -0.024 C 
HETATM   10  C   UNK N   1      46.913 -12.395 -73.200  0.00  0.00     0.043 C 
ENDROOT
TORSDOF 0
ENDMDL
MODEL 6
REMARK VINA RESULT:      -5.1      1.027      2.230
REMARK  0 active torsions:
REMARK  status: ('A' for Active; 'I' for Inactive)
ROOT
HETATM    1  C   UNK N   1      31.215 -17.924 -78.680  0.00  0.00    -0.036 C 
HETATM    2  C   UNK N   1      32.546 -18.709 -78.487  0.00  0.00    -0.002 C 
HETATM    3  C   UNK N   1      30.667 -18.800 -77.520  0.00  0.00     0.022 C 
HETATM    4  C   UNK N   1      31.693 -19.884 -77.940  0.00  0.00     0.015 C 
HETATM    5  C   UNK N   1      33.363 -18.137 -77.280  0.00  0.00     0.033 C 
HETATM    6  C   UNK N   1      31.151 -18.250 -76.178  0.00  0.00    -0.083 C 
HETATM    7  C   UNK N   1      30.523 -18.246 -80.035  0.00  0.00     0.016 C 
HETATM    8  C   UNK N   1      31.222 -16.382 -78.526  0.00  0.00     0.016 C 
HETATM    9  C   UNK N   1      32.465 -17.936 -76.065  0.00  0.00    -0.024 C 
HETATM   10  C   UNK N   1      30.194 -18.074 -75.035  0.00  0.00     0.043 C 
ENDROOT
TORSDOF 0
ENDMDL
MODEL 7
REMARK VINA RESULT:      -4.9      1.305      2.063
REMARK  0 active torsions:
REMARK  status: ('A' for Active; 'I' for Inactive)
ROOT
HETATM    1  C   UNK N   1      31.345 -18.775 -78.989  0.00  0.00    -0.036 C 
HETATM    2  C   UNK N   1      30.066 -17.888 -78.928  0.00  0.00    -0.002 C 
HETATM    3  C   UNK N   1      31.934 -17.793 -77.940  0.00  0.00     0.022 C 
HETATM    4  C   UNK N   1      30.988 -16.709 -78.518  0.00  0.00     0.015 C 
HETATM    5  C   UNK N   1      29.198 -18.245 -77.674  0.00  0.00     0.033 C 
HETATM    6  C   UNK N   1      31.398 -18.131 -76.549  0.00  0.00    -0.083 C 
HETATM    7  C   UNK N   1      32.074 -18.676 -80.359  0.00  0.00     0.016 C 
HETATM    8  C   UNK N   1      31.233 -20.280 -78.638  0.00  0.00     0.016 C 
HETATM    9  C   UNK N   1      30.065 -18.343 -76.424  0.00  0.00    -0.024 C 
HETATM   10  C   UNK N   1      32.327 -18.219 -75.373  0.00  0.00     0.043 C 
ENDROOT
TORSDOF 0
ENDMDL
MODEL 8
REMARK VINA RESULT:      -4.8      7.062      8.497
REMARK  0 active torsions:
REMARK  status: ('A' for Active; 'I' for Inactive)
ROOT
HETATM    1  C   UNK N   1      35.300 -21.250 -71.456  0.00  0.00    -0.036 C 
HETATM    2  C   UNK N   1      36.198 -20.015 -71.762  0.00  0.00    -0.002 C 
HETATM    3  C   UNK N   1      35.820 -21.816 -72.805  0.00  0.00     0.022 C 
HETATM    4  C   UNK N   1      36.025 -20.350 -73.267  0.00  0.00     0.015 C 
HETATM    5  C   UNK N   1      37.693 -20.307 -71.398  0.00  0.00     0.033 C 
HETATM    6  C   UNK N   1      37.218 -22.405 -72.619  0.00  0.00    -0.083 C 
HETATM    7  C   UNK N   1      33.782 -20.912 -71.508  0.00  0.00     0.016 C 
HETATM    8  C   UNK N   1      35.543 -22.053 -70.154  0.00  0.00     0.016 C 
HETATM    9  C   UNK N   1      38.127 -21.664 -71.939  0.00  0.00    -0.024 C 
HETATM   10  C   UNK N   1      37.558 -23.757 -73.178  0.00  0.00     0.043 C 
ENDROOT
TORSDOF 0
ENDMDL
MODEL 9
REMARK VINA RESULT:      -4.8      1.219      2.779
REMARK  0 active torsions:
REMARK  status: ('A' for Active; 'I' for Inactive)
ROOT
HETATM    1  C   UNK N   1      29.816 -18.469 -77.583  0.00  0.00    -0.036 C 
HETATM    2  C   UNK N   1      30.355 -17.404 -78.582  0.00  0.00    -0.002 C 
HETATM    3  C   UNK N   1      30.977 -19.366 -78.095  0.00  0.00     0.022 C 
HETATM    4  C   UNK N   1      30.909 -18.580 -79.429  0.00  0.00     0.015 C 
HETATM    5  C   UNK N   1      31.591 -16.650 -77.984  0.00  0.00     0.033 C 
HETATM    6  C   UNK N   1      32.288 -18.956 -77.423  0.00  0.00    -0.083 C 
HETATM    7  C   UNK N   1      28.423 -19.023 -77.995  0.00  0.00     0.016 C 
HETATM    8  C   UNK N   1      29.740 -18.117 -76.076  0.00  0.00     0.016 C 
HETATM    9  C   UNK N   1      32.584 -17.634 -77.378  0.00  0.00    -0.024 C 
HETATM   10  C   UNK N   1      33.205 -19.994 -76.841  0.00  0.00     0.043 C 
ENDROOT
TORSDOF 0
ENDMDL
