MODEL 1
REMARK VINA RESULT:      -8.8      0.000      0.000
REMARK  3 active torsions:
REMARK  status: ('A' for Active; 'I' for Inactive)
REMARK    1  A    between atoms: C_1  and  C_5 
REMARK    2  A    between atoms: C_8  and  C_11 
REMARK    3  A    between atoms: C_11  and  C_12 
ROOT
HETATM    1  C   UNK N   1      32.714 -19.326 -72.663  0.00  0.00    -0.083 C 
HETATM    2  C   UNK N   1      33.739 -20.204 -72.852  0.00  0.00    -0.020 C 
HETATM    3  C   UNK N   1      31.997 -19.136 -71.345  0.00  0.00     0.043 C 
ENDROOT
BRANCH   1   4
HETATM    4  C   UNK N   1      32.238 -18.472 -73.832  0.00  0.00     0.017 C 
HETATM    5  C   UNK N   1      32.753 -19.015 -75.164  0.00  0.00     0.013 C 
HETATM    6  C   UNK N   1      32.372 -18.061 -76.303  0.00  0.00     0.034 C 
HETATM    7  C   UNK N   1      30.924 -17.615 -76.252  0.00  0.00    -0.087 C 
HETATM    8  C   UNK N   1      30.165 -17.775 -75.144  0.00  0.00    -0.024 C 
HETATM    9  C   UNK N   1      30.339 -16.975 -77.479  0.00  0.00     0.043 C 
HETATM   10  C   UNK N   1      30.697 -18.369 -73.862  0.00  0.00     0.036 C 
ENDBRANCH   1   4
BRANCH   2  11
HETATM   11  C   UNK N   1      34.349 -21.115 -71.816  0.00  0.00     0.054 C 
BRANCH  11  12
HETATM   12  C   UNK N   1      35.683 -20.564 -71.369  0.00  0.00    -0.021 C 
HETATM   13  C   UNK N   1      36.888 -21.144 -71.582  0.00  0.00    -0.091 C 
HETATM   14  C   UNK N   1      38.138 -20.447 -71.107  0.00  0.00     0.042 C 
HETATM   15  C   UNK N   1      37.067 -22.477 -72.270  0.00  0.00     0.042 C 
ENDBRANCH  11  12
ENDBRANCH   2  11
TORSDOF 3
ENDMDL
MODEL 2
REMARK VINA RESULT:      -8.0      1.134      2.124
REMARK  3 active torsions:
REMARK  status: ('A' for Active; 'I' for Inactive)
REMARK    1  A    between atoms: C_1  and  C_5 
REMARK    2  A    between atoms: C_8  and  C_11 
REMARK    3  A    between atoms: C_11  and  C_12 
ROOT
HETATM    1  C   UNK N   1      31.033 -18.495 -73.448  0.00  0.00    -0.083 C 
HETATM    2  C   UNK N   1      32.179 -18.812 -72.782  0.00  0.00    -0.020 C 
HETATM    3  C   UNK N   1      29.644 -18.727 -72.896  0.00  0.00     0.043 C 
ENDROOT
BRANCH   1   4
HETATM    4  C   UNK N   1      31.124 -17.873 -74.836  0.00  0.00     0.017 C 
HETATM    5  C   UNK N   1      32.285 -18.462 -75.636  0.00  0.00     0.013 C 
HETATM    6  C   UNK N   1      32.433 -17.723 -76.971  0.00  0.00     0.034 C 
HETATM    7  C   UNK N   1      31.118 -17.533 -77.700  0.00  0.00    -0.087 C 
HETATM    8  C   UNK N   1      29.926 -17.699 -77.081  0.00  0.00    -0.024 C 
HETATM    9  C   UNK N   1      31.164 -17.145 -79.151  0.00  0.00     0.043 C 
HETATM   10  C   UNK N   1      29.802 -18.045 -75.617  0.00  0.00     0.036 C 
ENDBRANCH   1   4
BRANCH   2  11
HETATM   11  C   UNK N   1      32.285 -19.417 -71.404  0.00  0.00     0.054 C 
BRANCH  11  12
HETATM   12  C   UNK N   1      33.728 -19.736 -71.092  0.00  0.00    -0.021 C 
HETATM   13  C   UNK N   1      34.532 -20.549 -71.820  0.00  0.00    -0.091 C 
HETATM   14  C   UNK N   1      35.968 -20.737 -71.399  0.00  0.00     0.042 C 
HETATM   15  C   UNK N   1      34.072 -21.305 -73.044  0.00  0.00     0.042 C 
ENDBRANCH  11  12
ENDBRANCH   2  11
TORSDOF 3
ENDMDL
MODEL 3
REMARK VINA RESULT:      -7.9      1.101      2.217
REMARK  3 active torsions:
REMARK  status: ('A' for Active; 'I' for Inactive)
REMARK    1  A    between atoms: C_1  and  C_5 
REMARK    2  A    between atoms: C_8  and  C_11 
REMARK    3  A    between atoms: C_11  and  C_12 
ROOT
HETATM    1  C   UNK N   1      33.885 -20.499 -74.234  0.00  0.00    -0.083 C 
HETATM    2  C   UNK N   1      33.577 -20.349 -72.914  0.00  0.00    -0.020 C 
HETATM    3  C   UNK N   1      35.002 -21.380 -74.746  0.00  0.00     0.043 C 
ENDROOT
BRANCH   1   4
HETATM    4  C   UNK N   1      33.074 -19.742 -75.278  0.00  0.00     0.017 C 
HETATM    5  C   UNK N   1      32.286 -18.594 -74.648  0.00  0.00     0.013 C 
HETATM    6  C   UNK N   1      31.380 -17.939 -75.698  0.00  0.00     0.034 C 
HETATM    7  C   UNK N   1      32.087 -17.655 -77.008  0.00  0.00    -0.087 C 
HETATM    8  C   UNK N   1      33.277 -18.221 -77.316  0.00  0.00    -0.024 C 
HETATM    9  C   UNK N   1      31.427 -16.717 -77.978  0.00  0.00     0.043 C 
HETATM   10  C   UNK N   1      33.978 -19.206 -76.411  0.00  0.00     0.036 C 
ENDBRANCH   1   4
BRANCH   2  11
HETATM   11  C   UNK N   1      34.255 -21.024 -71.748  0.00  0.00     0.054 C 
BRANCH  11  12
HETATM   12  C   UNK N   1      35.582 -20.358 -71.468  0.00  0.00    -0.021 C 
HETATM   13  C   UNK N   1      36.796 -20.954 -71.549  0.00  0.00    -0.091 C 
HETATM   14  C   UNK N   1      38.037 -20.140 -71.277  0.00  0.00     0.042 C 
HETATM   15  C   UNK N   1      36.994 -22.412 -71.889  0.00  0.00     0.042 C 
ENDBRANCH  11  12
ENDBRANCH   2  11
TORSDOF 3
ENDMDL
MODEL 4
REMARK VINA RESULT:      -7.8      1.841      3.904
REMARK  3 active torsions:
REMARK  status: ('A' for Active; 'I' for Inactive)
REMARK    1  A    between atoms: C_1  and  C_5 
REMARK    2  A    between atoms: C_8  and  C_11 
REMARK    3  A    between atoms: C_11  and  C_12 
ROOT
HETATM    1  C   UNK N   1      30.553 -18.053 -75.201  0.00  0.00    -0.083 C 
HETATM    2  C   UNK N   1      31.700 -18.363 -74.533  0.00  0.00    -0.020 C 
HETATM    3  C   UNK N   1      29.280 -17.593 -74.526  0.00  0.00     0.043 C 
ENDROOT
BRANCH   1   4
HETATM    4  C   UNK N   1      30.520 -18.172 -76.719  0.00  0.00     0.017 C 
HETATM    5  C   UNK N   1      30.665 -16.806 -77.389  0.00  0.00     0.013 C 
HETATM    6  C   UNK N   1      30.493 -16.943 -78.907  0.00  0.00     0.034 C 
HETATM    7  C   UNK N   1      31.287 -18.090 -79.499  0.00  0.00    -0.087 C 
HETATM    8  C   UNK N   1      31.809 -19.072 -78.728  0.00  0.00    -0.024 C 
HETATM    9  C   UNK N   1      31.482 -18.118 -80.989  0.00  0.00     0.043 C 
HETATM   10  C   UNK N   1      31.617 -19.132 -77.232  0.00  0.00     0.036 C 
ENDBRANCH   1   4
BRANCH   2  11
HETATM   11  C   UNK N   1      31.924 -18.292 -73.042  0.00  0.00     0.054 C 
BRANCH  11  12
HETATM   12  C   UNK N   1      32.828 -19.420 -72.604  0.00  0.00    -0.021 C 
HETATM   13  C   UNK N   1      33.300 -19.610 -71.348  0.00  0.00    -0.091 C 
HETATM   14  C   UNK N   1      34.164 -20.812 -71.058  0.00  0.00     0.042 C 
HETATM   15  C   UNK N   1      33.021 -18.673 -70.197  0.00  0.00     0.042 C 
ENDBRANCH  11  12
ENDBRANCH   2  11
TORSDOF 3
ENDMDL
MODEL 5
REMARK VINA RESULT:      -7.6      5.527      9.470
REMARK  3 active torsions:
REMARK  status: ('A' for Active; 'I' for Inactive)
REMARK    1  A    between atoms: C_1  and  C_5 
REMARK    2  A    between atoms: C_8  and  C_11 
REMARK    3  A    between atoms: C_11  and  C_12 
ROOT
HETATM    1  C   UNK N   1      37.816 -24.610 -75.121  0.00  0.00    -0.083 C 
HETATM    2  C   UNK N   1      37.587 -23.959 -73.945  0.00  0.00    -0.020 C 
HETATM    3  C   UNK N   1      37.239 -24.181 -76.451  0.00  0.00     0.043 C 
ENDROOT
BRANCH   1   4
HETATM    4  C   UNK N   1      38.699 -25.852 -75.125  0.00  0.00     0.017 C 
HETATM    5  C   UNK N   1      38.885 -26.399 -76.539  0.00  0.00     0.013 C 
HETATM    6  C   UNK N   1      39.663 -27.720 -76.494  0.00  0.00     0.034 C 
HETATM    7  C   UNK N   1      40.892 -27.663 -75.608  0.00  0.00    -0.087 C 
HETATM    8  C   UNK N   1      41.079 -26.670 -74.708  0.00  0.00    -0.024 C 
HETATM    9  C   UNK N   1      41.915 -28.754 -75.749  0.00  0.00     0.043 C 
HETATM   10  C   UNK N   1      40.074 -25.566 -74.482  0.00  0.00     0.036 C 
ENDBRANCH   1   4
BRANCH   2  11
HETATM   11  C   UNK N   1      36.758 -22.713 -73.751  0.00  0.00     0.054 C 
BRANCH  11  12
HETATM   12  C   UNK N   1      37.546 -21.688 -72.969  0.00  0.00    -0.021 C 
HETATM   13  C   UNK N   1      37.309 -21.322 -71.686  0.00  0.00    -0.091 C 
HETATM   14  C   UNK N   1      38.213 -20.309 -71.028  0.00  0.00     0.042 C 
HETATM   15  C   UNK N   1      36.170 -21.864 -70.856  0.00  0.00     0.042 C 
ENDBRANCH  11  12
ENDBRANCH   2  11
TORSDOF 3
ENDMDL
MODEL 6
REMARK VINA RESULT:      -7.5      1.315      6.830
REMARK  3 active torsions:
REMARK  status: ('A' for Active; 'I' for Inactive)
REMARK    1  A    between atoms: C_1  and  C_5 
REMARK    2  A    between atoms: C_8  and  C_11 
REMARK    3  A    between atoms: C_11  and  C_12 
ROOT
HETATM    1  C   UNK N   1      31.124 -18.460 -73.678  0.00  0.00    -0.083 C 
HETATM    2  C   UNK N   1      31.188 -17.867 -74.904  0.00  0.00    -0.020 C 
HETATM    3  C   UNK N   1      29.836 -18.701 -72.922  0.00  0.00     0.043 C 
ENDROOT
BRANCH   1   4
HETATM    4  C   UNK N   1      32.412 -18.914 -73.001  0.00  0.00     0.017 C 
HETATM    5  C   UNK N   1      32.136 -19.510 -71.622  0.00  0.00     0.013 C 
HETATM    6  C   UNK N   1      33.459 -19.832 -70.914  0.00  0.00     0.034 C 
HETATM    7  C   UNK N   1      34.449 -20.565 -71.798  0.00  0.00    -0.087 C 
HETATM    8  C   UNK N   1      34.302 -20.621 -73.142  0.00  0.00    -0.024 C 
HETATM    9  C   UNK N   1      35.620 -21.237 -71.140  0.00  0.00     0.043 C 
HETATM   10  C   UNK N   1      33.176 -19.934 -73.876  0.00  0.00     0.036 C 
ENDBRANCH   1   4
BRANCH   2  11
HETATM   11  C   UNK N   1      30.026 -17.369 -75.727  0.00  0.00     0.054 C 
BRANCH  11  12
HETATM   12  C   UNK N   1      29.880 -18.212 -76.972  0.00  0.00    -0.021 C 
HETATM   13  C   UNK N   1      30.350 -17.892 -78.202  0.00  0.00    -0.091 C 
HETATM   14  C   UNK N   1      30.158 -18.861 -79.341  0.00  0.00     0.042 C 
HETATM   15  C   UNK N   1      31.059 -16.596 -78.516  0.00  0.00     0.042 C 
ENDBRANCH  11  12
ENDBRANCH   2  11
TORSDOF 3
ENDMDL
MODEL 7
REMARK VINA RESULT:      -7.2      2.866      5.320
REMARK  3 active torsions:
REMARK  status: ('A' for Active; 'I' for Inactive)
REMARK    1  A    between atoms: C_1  and  C_5 
REMARK    2  A    between atoms: C_8  and  C_11 
REMARK    3  A    between atoms: C_11  and  C_12 
ROOT
HETATM    1  C   UNK N   1      36.748 -21.877 -72.857  0.00  0.00    -0.083 C 
HETATM    2  C   UNK N   1      36.742 -22.858 -73.804  0.00  0.00    -0.020 C 
HETATM    3  C   UNK N   1      37.840 -21.708 -71.824  0.00  0.00     0.043 C 
ENDROOT
BRANCH   1   4
HETATM    4  C   UNK N   1      35.598 -20.879 -72.809  0.00  0.00     0.017 C 
HETATM    5  C   UNK N   1      34.525 -21.215 -73.843  0.00  0.00     0.013 C 
HETATM    6  C   UNK N   1      33.451 -20.120 -73.863  0.00  0.00     0.034 C 
HETATM    7  C   UNK N   1      32.976 -19.722 -72.479  0.00  0.00    -0.087 C 
HETATM    8  C   UNK N   1      33.664 -20.056 -71.363  0.00  0.00    -0.024 C 
HETATM    9  C   UNK N   1      31.704 -18.930 -72.371  0.00  0.00     0.043 C 
HETATM   10  C   UNK N   1      34.971 -20.812 -71.398  0.00  0.00     0.036 C 
ENDBRANCH   1   4
BRANCH   2  11
HETATM   11  C   UNK N   1      37.794 -23.918 -74.012  0.00  0.00     0.054 C 
BRANCH  11  12
HETATM   12  C   UNK N   1      38.042 -24.114 -75.489  0.00  0.00    -0.021 C 
HETATM   13  C   UNK N   1      39.051 -24.837 -76.031  0.00  0.00    -0.091 C 
HETATM   14  C   UNK N   1      39.141 -24.972 -77.530  0.00  0.00     0.042 C 
HETATM   15  C   UNK N   1      40.122 -25.523 -75.216  0.00  0.00     0.042 C 
ENDBRANCH  11  12
ENDBRANCH   2  11
TORSDOF 3
ENDMDL
MODEL 8
REMARK VINA RESULT:      -7.1      3.552      7.546
REMARK  3 active torsions:
REMARK  status: ('A' for Active; 'I' for Inactive)
REMARK    1  A    between atoms: C_1  and  C_5 
REMARK    2  A    between atoms: C_8  and  C_11 
REMARK    3  A    between atoms: C_11  and  C_12 
ROOT
HETATM    1  C   UNK N   1      31.080 -17.995 -78.349  0.00  0.00    -0.083 C 
HETATM    2  C   UNK N   1      31.277 -18.906 -79.343  0.00  0.00    -0.020 C 
HETATM    3  C   UNK N   1      30.717 -16.546 -78.590  0.00  0.00     0.043 C 
ENDROOT
BRANCH   1   4
HETATM    4  C   UNK N   1      31.230 -18.431 -76.896  0.00  0.00     0.017 C 
HETATM    5  C   UNK N   1      32.696 -18.441 -76.466  0.00  0.00     0.013 C 
HETATM    6  C   UNK N   1      32.824 -19.012 -75.048  0.00  0.00     0.034 C 
HETATM    7  C   UNK N   1      31.822 -18.427 -74.073  0.00  0.00    -0.087 C 
HETATM    8  C   UNK N   1      30.735 -17.739 -74.492  0.00  0.00    -0.024 C 
HETATM    9  C   UNK N   1      32.062 -18.634 -72.605  0.00  0.00     0.043 C 
HETATM   10  C   UNK N   1      30.406 -17.529 -75.951  0.00  0.00     0.036 C 
ENDBRANCH   1   4
BRANCH   2  11
HETATM   11  C   UNK N   1      31.159 -18.662 -80.827  0.00  0.00     0.054 C 
BRANCH  11  12
HETATM   12  C   UNK N   1      32.530 -18.681 -81.462  0.00  0.00    -0.021 C 
HETATM   13  C   UNK N   1      32.933 -19.526 -82.441  0.00  0.00    -0.091 C 
HETATM   14  C   UNK N   1      34.327 -19.394 -83.003  0.00  0.00     0.042 C 
HETATM   15  C   UNK N   1      32.066 -20.622 -83.013  0.00  0.00     0.042 C 
ENDBRANCH  11  12
ENDBRANCH   2  11
TORSDOF 3
ENDMDL
MODEL 9
REMARK VINA RESULT:      -7.0      3.815      6.969
REMARK  3 active torsions:
REMARK  status: ('A' for Active; 'I' for Inactive)
REMARK    1  A    between atoms: C_1  and  C_5 
REMARK    2  A    between atoms: C_8  and  C_11 
REMARK    3  A    between atoms: C_11  and  C_12 
ROOT
HETATM    1  C   UNK N   1      30.966 -19.031 -78.822  0.00  0.00    -0.083 C 
HETATM    2  C   UNK N   1      31.320 -18.006 -77.995  0.00  0.00    -0.020 C 
HETATM    3  C   UNK N   1      29.733 -19.885 -78.628  0.00  0.00     0.043 C 
ENDROOT
BRANCH   1   4
HETATM    4  C   UNK N   1      31.848 -19.361 -80.020  0.00  0.00     0.017 C 
HETATM    5  C   UNK N   1      31.642 -18.361 -81.156  0.00  0.00     0.013 C 
HETATM    6  C   UNK N   1      32.440 -18.796 -82.392  0.00  0.00     0.034 C 
HETATM    7  C   UNK N   1      33.867 -19.195 -82.073  0.00  0.00    -0.087 C 
HETATM    8  C   UNK N   1      34.272 -19.455 -80.808  0.00  0.00    -0.024 C 
HETATM    9  C   UNK N   1      34.841 -19.303 -83.212  0.00  0.00     0.043 C 
HETATM   10  C   UNK N   1      33.341 -19.409 -79.621  0.00  0.00     0.036 C 
ENDBRANCH   1   4
BRANCH   2  11
HETATM   11  C   UNK N   1      30.568 -17.529 -76.778  0.00  0.00     0.054 C 
BRANCH  11  12
HETATM   12  C   UNK N   1      31.336 -17.884 -75.526  0.00  0.00    -0.021 C 
HETATM   13  C   UNK N   1      30.790 -18.167 -74.319  0.00  0.00    -0.091 C 
HETATM   14  C   UNK N   1      31.692 -18.545 -73.171  0.00  0.00     0.042 C 
HETATM   15  C   UNK N   1      29.307 -18.116 -74.037  0.00  0.00     0.042 C 
ENDBRANCH  11  12
ENDBRANCH   2  11
TORSDOF 3
ENDMDL
