MODEL 1
REMARK VINA RESULT:      -7.8      0.000      0.000
REMARK  1 active torsions:
REMARK  status: ('A' for Active; 'I' for Inactive)
REMARK    1  A    between atoms: C_5  and  C_11 
ROOT
HETATM    1  C   UNK N   1      31.446 -17.610 -77.224  0.00  0.00    -0.021 A 
HETATM    2  C   UNK N   1      30.226 -17.697 -76.305  0.00  0.00     0.009 A 
HETATM    3  C   UNK N   1      30.453 -18.727 -77.467  0.00  0.00     0.028 A 
HETATM    4  C   UNK N   1      32.824 -17.839 -76.548  0.00  0.00    -0.009 C 
HETATM    5  C   UNK N   1      30.288 -18.476 -74.955  0.00  0.00    -0.006 C 
HETATM    6  C   UNK N   1      31.309 -16.554 -78.340  0.00  0.00     0.038 A 
HETATM    7  C   UNK N   1      29.872 -18.333 -78.790  0.00  0.00    -0.082 A 
HETATM    8  C   UNK N   1      32.768 -18.758 -75.315  0.00  0.00     0.005 C 
HETATM    9  C   UNK N   1      31.694 -18.295 -74.337  0.00  0.00     0.006 C 
HETATM   10  C   UNK N   1      30.309 -17.168 -79.242  0.00  0.00    -0.023 A 
HETATM   11  C   UNK N   1      33.829 -18.423 -77.554  0.00  0.00     0.011 C 
HETATM   12  C   UNK N   1      28.886 -19.186 -79.528  0.00  0.00     0.043 C 
ENDROOT
BRANCH   5  13
HETATM   13  C   UNK N   1      29.150 -18.017 -73.981  0.00  0.00    -0.018 C 
HETATM   14  C   UNK N   1      27.753 -18.259 -74.592  0.00  0.00     0.010 C 
HETATM   15  C   UNK N   1      29.194 -18.760 -72.631  0.00  0.00     0.010 C 
ENDBRANCH   5  13
TORSDOF 1
ENDMDL
MODEL 2
REMARK VINA RESULT:      -6.9      4.568      7.287
REMARK  1 active torsions:
REMARK  status: ('A' for Active; 'I' for Inactive)
REMARK    1  A    between atoms: C_5  and  C_11 
ROOT
HETATM    1  C   UNK N   1      35.802 -21.054 -72.457  0.00  0.00    -0.021 A 
HETATM    2  C   UNK N   1      35.314 -20.628 -73.844  0.00  0.00     0.009 A 
HETATM    3  C   UNK N   1      35.531 -22.139 -73.479  0.00  0.00     0.028 A 
HETATM    4  C   UNK N   1      34.842 -20.750 -71.276  0.00  0.00    -0.009 C 
HETATM    5  C   UNK N   1      33.797 -20.419 -74.135  0.00  0.00    -0.006 C 
HETATM    6  C   UNK N   1      37.325 -20.906 -72.262  0.00  0.00     0.038 A 
HETATM    7  C   UNK N   1      36.911 -22.664 -73.734  0.00  0.00    -0.082 A 
HETATM    8  C   UNK N   1      33.355 -20.729 -71.672  0.00  0.00     0.005 C 
HETATM    9  C   UNK N   1      33.123 -19.824 -72.876  0.00  0.00     0.006 C 
HETATM   10  C   UNK N   1      37.864 -21.995 -73.106  0.00  0.00    -0.023 A 
HETATM   11  C   UNK N   1      35.038 -21.772 -70.145  0.00  0.00     0.011 C 
HETATM   12  C   UNK N   1      37.177 -23.841 -74.622  0.00  0.00     0.043 C 
ENDROOT
BRANCH   5  13
HETATM   13  C   UNK N   1      33.579 -19.523 -75.401  0.00  0.00    -0.018 C 
HETATM   14  C   UNK N   1      33.436 -20.378 -76.679  0.00  0.00     0.010 C 
HETATM   15  C   UNK N   1      32.315 -18.647 -75.294  0.00  0.00     0.010 C 
ENDBRANCH   5  13
TORSDOF 1
ENDMDL
MODEL 3
REMARK VINA RESULT:      -6.8      1.308      2.176
REMARK  1 active torsions:
REMARK  status: ('A' for Active; 'I' for Inactive)
REMARK    1  A    between atoms: C_5  and  C_11 
ROOT
HETATM    1  C   UNK N   1      30.198 -18.001 -78.541  0.00  0.00    -0.021 A 
HETATM    2  C   UNK N   1      29.911 -17.951 -77.039  0.00  0.00     0.009 A 
HETATM    3  C   UNK N   1      29.550 -19.211 -77.902  0.00  0.00     0.028 A 
HETATM    4  C   UNK N   1      31.695 -17.962 -78.949  0.00  0.00    -0.009 C 
HETATM    5  C   UNK N   1      30.992 -18.376 -75.998  0.00  0.00    -0.006 C 
HETATM    6  C   UNK N   1      29.153 -17.256 -79.398  0.00  0.00     0.038 A 
HETATM    7  C   UNK N   1      28.188 -19.188 -78.524  0.00  0.00    -0.082 A 
HETATM    8  C   UNK N   1      32.644 -18.560 -77.895  0.00  0.00     0.005 C 
HETATM    9  C   UNK N   1      32.385 -17.953 -76.520  0.00  0.00     0.006 C 
HETATM   10  C   UNK N   1      27.970 -18.139 -79.300  0.00  0.00    -0.023 A 
HETATM   11  C   UNK N   1      31.911 -18.698 -80.282  0.00  0.00     0.011 C 
HETATM   12  C   UNK N   1      27.171 -20.262 -78.283  0.00  0.00     0.043 C 
ENDROOT
BRANCH   5  13
HETATM   13  C   UNK N   1      30.684 -17.779 -74.583  0.00  0.00    -0.018 C 
HETATM   14  C   UNK N   1      29.222 -18.046 -74.164  0.00  0.00     0.010 C 
HETATM   15  C   UNK N   1      31.589 -18.370 -73.484  0.00  0.00     0.010 C 
ENDBRANCH   5  13
TORSDOF 1
ENDMDL
MODEL 4
REMARK VINA RESULT:      -6.1      9.615     12.092
REMARK  1 active torsions:
REMARK  status: ('A' for Active; 'I' for Inactive)
REMARK    1  A    between atoms: C_5  and  C_11 
ROOT
HETATM    1  C   UNK N   1      38.534 -23.337 -83.246  0.00  0.00    -0.021 A 
HETATM    2  C   UNK N   1      37.735 -22.885 -84.471  0.00  0.00     0.009 A 
HETATM    3  C   UNK N   1      38.155 -24.384 -84.272  0.00  0.00     0.028 A 
HETATM    4  C   UNK N   1      37.816 -23.199 -81.877  0.00  0.00    -0.009 C 
HETATM    5  C   UNK N   1      36.178 -22.815 -84.435  0.00  0.00    -0.006 C 
HETATM    6  C   UNK N   1      40.046 -23.046 -83.348  0.00  0.00     0.038 A 
HETATM    7  C   UNK N   1      39.493 -24.751 -84.837  0.00  0.00    -0.082 A 
HETATM    8  C   UNK N   1      36.283 -23.307 -81.964  0.00  0.00     0.005 C 
HETATM    9  C   UNK N   1      35.729 -22.364 -83.025  0.00  0.00     0.006 C 
HETATM   10  C   UNK N   1      40.493 -24.025 -84.364  0.00  0.00    -0.023 A 
HETATM   11  C   UNK N   1      38.331 -24.258 -80.888  0.00  0.00     0.011 C 
HETATM   12  C   UNK N   1      39.673 -25.843 -85.848  0.00  0.00     0.043 C 
ENDROOT
BRANCH   5  13
HETATM   13  C   UNK N   1      35.625 -21.876 -85.560  0.00  0.00    -0.018 C 
HETATM   14  C   UNK N   1      35.709 -22.549 -86.948  0.00  0.00     0.010 C 
HETATM   15  C   UNK N   1      34.152 -21.483 -85.331  0.00  0.00     0.010 C 
ENDBRANCH   5  13
TORSDOF 1
ENDMDL
MODEL 5
REMARK VINA RESULT:      -6.1      2.066      4.162
REMARK  1 active torsions:
REMARK  status: ('A' for Active; 'I' for Inactive)
REMARK    1  A    between atoms: C_5  and  C_11 
ROOT
HETATM    1  C   UNK N   1      30.527 -19.728 -79.133  0.00  0.00    -0.021 A 
HETATM    2  C   UNK N   1      31.754 -19.427 -78.269  0.00  0.00     0.009 A 
HETATM    3  C   UNK N   1      31.544 -18.740 -79.665  0.00  0.00     0.028 A 
HETATM    4  C   UNK N   1      29.158 -19.295 -78.545  0.00  0.00    -0.009 C 
HETATM    5  C   UNK N   1      31.715 -18.315 -77.177  0.00  0.00    -0.006 C 
HETATM    6  C   UNK N   1      30.635 -21.047 -79.927  0.00  0.00     0.038 A 
HETATM    7  C   UNK N   1      32.109 -19.487 -80.834  0.00  0.00    -0.082 A 
HETATM    8  C   UNK N   1      29.241 -18.081 -77.602  0.00  0.00     0.005 C 
HETATM    9  C   UNK N   1      30.309 -18.292 -76.534  0.00  0.00     0.006 C 
HETATM   10  C   UNK N   1      31.643 -20.719 -80.959  0.00  0.00    -0.023 A 
HETATM   11  C   UNK N   1      28.162 -18.978 -79.672  0.00  0.00     0.011 C 
HETATM   12  C   UNK N   1      33.111 -18.884 -81.771  0.00  0.00     0.043 C 
ENDROOT
BRANCH   5  13
HETATM   13  C   UNK N   1      32.848 -18.523 -76.114  0.00  0.00    -0.018 C 
HETATM   14  C   UNK N   1      32.277 -18.542 -74.679  0.00  0.00     0.010 C 
HETATM   15  C   UNK N   1      33.613 -19.846 -76.319  0.00  0.00     0.010 C 
ENDBRANCH   5  13
TORSDOF 1
ENDMDL
MODEL 6
REMARK VINA RESULT:      -6.1      9.736     12.297
REMARK  1 active torsions:
REMARK  status: ('A' for Active; 'I' for Inactive)
REMARK    1  A    between atoms: C_5  and  C_11 
ROOT
HETATM    1  C   UNK N   1      38.171 -24.016 -83.867  0.00  0.00    -0.021 A 
HETATM    2  C   UNK N   1      36.966 -23.085 -84.017  0.00  0.00     0.009 A 
HETATM    3  C   UNK N   1      38.400 -22.527 -83.711  0.00  0.00     0.028 A 
HETATM    4  C   UNK N   1      38.584 -24.805 -85.138  0.00  0.00    -0.009 C 
HETATM    5  C   UNK N   1      36.531 -22.551 -85.415  0.00  0.00    -0.006 C 
HETATM    6  C   UNK N   1      38.265 -24.694 -82.484  0.00  0.00     0.038 A 
HETATM    7  C   UNK N   1      38.748 -22.425 -82.258  0.00  0.00    -0.082 A 
HETATM    8  C   UNK N   1      38.237 -24.088 -86.455  0.00  0.00     0.005 C 
HETATM    9  C   UNK N   1      36.776 -23.652 -86.472  0.00  0.00     0.006 C 
HETATM   10  C   UNK N   1      38.654 -23.571 -81.602  0.00  0.00    -0.023 A 
HETATM   11  C   UNK N   1      40.091 -25.106 -85.121  0.00  0.00     0.011 C 
HETATM   12  C   UNK N   1      39.165 -21.138 -81.614  0.00  0.00     0.043 C 
ENDROOT
BRANCH   5  13
HETATM   13  C   UNK N   1      35.041 -22.067 -85.400  0.00  0.00    -0.018 C 
HETATM   14  C   UNK N   1      34.836 -20.901 -84.408  0.00  0.00     0.010 C 
HETATM   15  C   UNK N   1      34.565 -21.578 -86.783  0.00  0.00     0.010 C 
ENDBRANCH   5  13
TORSDOF 1
ENDMDL
MODEL 7
REMARK VINA RESULT:      -6.0      6.509      9.322
REMARK  1 active torsions:
REMARK  status: ('A' for Active; 'I' for Inactive)
REMARK    1  A    between atoms: C_5  and  C_11 
ROOT
HETATM    1  C   UNK N   1      36.088 -22.187 -82.709  0.00  0.00    -0.021 A 
HETATM    2  C   UNK N   1      35.521 -20.936 -82.035  0.00  0.00     0.009 A 
HETATM    3  C   UNK N   1      37.018 -21.010 -82.499  0.00  0.00     0.028 A 
HETATM    4  C   UNK N   1      35.483 -22.548 -84.092  0.00  0.00    -0.009 C 
HETATM    5  C   UNK N   1      34.815 -19.823 -82.867  0.00  0.00    -0.006 C 
HETATM    6  C   UNK N   1      36.458 -23.312 -81.720  0.00  0.00     0.038 A 
HETATM    7  C   UNK N   1      37.973 -21.558 -81.484  0.00  0.00    -0.082 A 
HETATM    8  C   UNK N   1      34.965 -21.332 -84.881  0.00  0.00     0.005 C 
HETATM    9  C   UNK N   1      34.032 -20.483 -84.026  0.00  0.00     0.006 C 
HETATM   10  C   UNK N   1      37.663 -22.770 -81.053  0.00  0.00    -0.023 A 
HETATM   11  C   UNK N   1      36.514 -23.294 -84.954  0.00  0.00     0.011 C 
HETATM   12  C   UNK N   1      39.170 -20.794 -81.004  0.00  0.00     0.043 C 
ENDROOT
BRANCH   5  13
HETATM   13  C   UNK N   1      33.895 -18.933 -81.963  0.00  0.00    -0.018 C 
HETATM   14  C   UNK N   1      32.447 -18.895 -82.497  0.00  0.00     0.010 C 
HETATM   15  C   UNK N   1      33.833 -19.438 -80.508  0.00  0.00     0.010 C 
ENDBRANCH   5  13
TORSDOF 1
ENDMDL
MODEL 8
REMARK VINA RESULT:      -6.0      2.408      5.824
REMARK  1 active torsions:
REMARK  status: ('A' for Active; 'I' for Inactive)
REMARK    1  A    between atoms: C_5  and  C_11 
ROOT
HETATM    1  C   UNK N   1      30.662 -18.627 -78.805  0.00  0.00    -0.021 A 
HETATM    2  C   UNK N   1      32.145 -18.703 -79.174  0.00  0.00     0.009 A 
HETATM    3  C   UNK N   1      31.625 -19.169 -77.769  0.00  0.00     0.028 A 
HETATM    4  C   UNK N   1      29.709 -19.535 -79.627  0.00  0.00    -0.009 C 
HETATM    5  C   UNK N   1      32.729 -19.950 -79.906  0.00  0.00    -0.006 C 
HETATM    6  C   UNK N   1      30.199 -17.217 -78.383  0.00  0.00     0.038 A 
HETATM    7  C   UNK N   1      31.575 -18.099 -76.722  0.00  0.00    -0.082 A 
HETATM    8  C   UNK N   1      30.375 -20.816 -80.160  0.00  0.00     0.005 C 
HETATM    9  C   UNK N   1      31.671 -20.493 -80.895  0.00  0.00     0.006 C 
HETATM   10  C   UNK N   1      30.837 -17.053 -77.058  0.00  0.00    -0.023 A 
HETATM   11  C   UNK N   1      28.481 -19.927 -78.789  0.00  0.00     0.011 C 
HETATM   12  C   UNK N   1      32.300 -18.212 -75.415  0.00  0.00     0.043 C 
ENDROOT
BRANCH   5  13
HETATM   13  C   UNK N   1      34.083 -19.609 -80.618  0.00  0.00    -0.018 C 
HETATM   14  C   UNK N   1      34.945 -20.874 -80.826  0.00  0.00     0.010 C 
HETATM   15  C   UNK N   1      33.876 -18.965 -82.003  0.00  0.00     0.010 C 
ENDBRANCH   5  13
TORSDOF 1
ENDMDL
MODEL 9
REMARK VINA RESULT:      -6.0      2.050      3.693
REMARK  1 active torsions:
REMARK  status: ('A' for Active; 'I' for Inactive)
REMARK    1  A    between atoms: C_5  and  C_11 
ROOT
HETATM    1  C   UNK N   1      31.835 -18.153 -75.454  0.00  0.00    -0.021 A 
HETATM    2  C   UNK N   1      32.096 -18.400 -73.966  0.00  0.00     0.009 A 
HETATM    3  C   UNK N   1      30.766 -18.868 -74.655  0.00  0.00     0.028 A 
HETATM    4  C   UNK N   1      32.782 -18.885 -76.441  0.00  0.00    -0.009 C 
HETATM    5  C   UNK N   1      32.859 -19.670 -73.483  0.00  0.00    -0.006 C 
HETATM    6  C   UNK N   1      31.360 -16.720 -75.772  0.00  0.00     0.038 A 
HETATM    7  C   UNK N   1      29.660 -17.858 -74.657  0.00  0.00    -0.082 A 
HETATM    8  C   UNK N   1      33.343 -20.211 -75.897  0.00  0.00     0.005 C 
HETATM    9  C   UNK N   1      33.957 -20.019 -74.515  0.00  0.00     0.006 C 
HETATM   10  C   UNK N   1      29.983 -16.710 -75.230  0.00  0.00    -0.023 A 
HETATM   11  C   UNK N   1      32.065 -19.161 -77.773  0.00  0.00     0.011 C 
HETATM   12  C   UNK N   1      28.311 -18.133 -74.063  0.00  0.00     0.043 C 
ENDROOT
BRANCH   5  13
HETATM   13  C   UNK N   1      33.444 -19.469 -72.043  0.00  0.00    -0.018 C 
HETATM   14  C   UNK N   1      32.422 -18.783 -71.110  0.00  0.00     0.010 C 
HETATM   15  C   UNK N   1      33.848 -20.800 -71.379  0.00  0.00     0.010 C 
ENDBRANCH   5  13
TORSDOF 1
ENDMDL
