MODEL 1
REMARK VINA RESULT:      -6.2      0.000      0.000
REMARK  3 active torsions:
REMARK  status: ('A' for Active; 'I' for Inactive)
REMARK    1  A    between atoms: O_1  and  C_6 
REMARK    2  A    between atoms: C_2  and  C_3 
REMARK    3  A    between atoms: C_3  and  C_9 
ROOT
HETATM    1  C   UNK N   1      30.904 -18.609 -73.362  0.00  0.00    -0.055 A 
HETATM    2  C   UNK N   1      29.595 -18.358 -73.803  0.00  0.00     0.010 A 
HETATM    3  C   UNK N   1      31.978 -18.421 -74.238  0.00  0.00     0.010 A 
HETATM    4  C   UNK N   1      30.444 -17.739 -75.995  0.00  0.00     0.068 A 
HETATM    5  C   UNK N   1      29.367 -17.923 -75.119  0.00  0.00     0.037 A 
HETATM    6  C   UNK N   1      31.754 -17.990 -75.545  0.00  0.00     0.037 A 
ENDROOT
BRANCH   1   7
HETATM    7  C   UNK N   1      31.171 -19.086 -71.961  0.00  0.00     0.064 C 
BRANCH   7   8
HETATM    8  C   UNK N   1      32.648 -19.095 -71.686  0.00  0.00    -0.032 C 
HETATM    9  C   UNK N   1      33.143 -18.736 -70.496  0.00  0.00     0.007 C 
ENDBRANCH   7   8
ENDBRANCH   1   7
BRANCH   4  10
HETATM   10  O   UNK N   1      30.198 -17.320 -77.271  0.00  0.00    -0.356 OA
HETATM   11  C   UNK N   1      31.164 -16.809 -78.114  0.00  0.00     0.210 C 
ENDBRANCH   4  10
TORSDOF 3
ENDMDL
MODEL 2
REMARK VINA RESULT:      -6.0      3.260      4.876
REMARK  3 active torsions:
REMARK  status: ('A' for Active; 'I' for Inactive)
REMARK    1  A    between atoms: O_1  and  C_6 
REMARK    2  A    between atoms: C_2  and  C_3 
REMARK    3  A    between atoms: C_3  and  C_9 
ROOT
HETATM    1  C   UNK N   1      34.879 -20.872 -71.537  0.00  0.00    -0.055 A 
HETATM    2  C   UNK N   1      34.712 -20.953 -72.929  0.00  0.00     0.010 A 
HETATM    3  C   UNK N   1      34.018 -20.071 -70.781  0.00  0.00     0.010 A 
HETATM    4  C   UNK N   1      32.828 -19.422 -72.797  0.00  0.00     0.068 A 
HETATM    5  C   UNK N   1      33.686 -20.228 -73.557  0.00  0.00     0.037 A 
HETATM    6  C   UNK N   1      33.000 -19.349 -71.403  0.00  0.00     0.037 A 
ENDROOT
BRANCH   1   7
HETATM    7  C   UNK N   1      35.977 -21.631 -70.845  0.00  0.00     0.064 C 
BRANCH   7   8
HETATM    8  C   UNK N   1      37.293 -21.383 -71.528  0.00  0.00    -0.032 C 
HETATM    9  C   UNK N   1      38.110 -20.396 -71.142  0.00  0.00     0.007 C 
ENDBRANCH   7   8
ENDBRANCH   1   7
BRANCH   4  10
HETATM   10  O   UNK N   1      31.840 -18.724 -73.430  0.00  0.00    -0.356 OA
HETATM   11  C   UNK N   1      31.912 -18.307 -74.744  0.00  0.00     0.210 C 
ENDBRANCH   4  10
TORSDOF 3
ENDMDL
MODEL 3
REMARK VINA RESULT:      -5.8      2.506      3.661
REMARK  3 active torsions:
REMARK  status: ('A' for Active; 'I' for Inactive)
REMARK    1  A    between atoms: O_1  and  C_6 
REMARK    2  A    between atoms: C_2  and  C_3 
REMARK    3  A    between atoms: C_3  and  C_9 
ROOT
HETATM    1  C   UNK N   1      31.089 -17.946 -75.492  0.00  0.00    -0.055 A 
HETATM    2  C   UNK N   1      30.930 -18.221 -76.860  0.00  0.00     0.010 A 
HETATM    3  C   UNK N   1      32.178 -18.483 -74.799  0.00  0.00     0.010 A 
HETATM    4  C   UNK N   1      32.948 -19.575 -76.828  0.00  0.00     0.068 A 
HETATM    5  C   UNK N   1      31.861 -19.035 -77.526  0.00  0.00     0.037 A 
HETATM    6  C   UNK N   1      33.102 -19.293 -75.458  0.00  0.00     0.037 A 
ENDROOT
BRANCH   1   7
HETATM    7  C   UNK N   1      30.099 -17.086 -74.756  0.00  0.00     0.064 C 
BRANCH   7   8
HETATM    8  C   UNK N   1      28.947 -17.918 -74.266  0.00  0.00    -0.032 C 
HETATM    9  C   UNK N   1      29.019 -18.615 -73.127  0.00  0.00     0.007 C 
ENDBRANCH   7   8
ENDBRANCH   1   7
BRANCH   4  10
HETATM   10  O   UNK N   1      33.838 -20.368 -77.496  0.00  0.00    -0.356 OA
HETATM   11  C   UNK N   1      33.664 -20.796 -78.796  0.00  0.00     0.210 C 
ENDBRANCH   4  10
TORSDOF 3
ENDMDL
MODEL 4
REMARK VINA RESULT:      -5.7      2.855      5.013
REMARK  3 active torsions:
REMARK  status: ('A' for Active; 'I' for Inactive)
REMARK    1  A    between atoms: O_1  and  C_6 
REMARK    2  A    between atoms: C_2  and  C_3 
REMARK    3  A    between atoms: C_3  and  C_9 
ROOT
HETATM    1  C   UNK N   1      31.800 -18.581 -73.722  0.00  0.00    -0.055 A 
HETATM    2  C   UNK N   1      31.874 -18.896 -72.356  0.00  0.00     0.010 A 
HETATM    3  C   UNK N   1      32.708 -19.157 -74.616  0.00  0.00     0.010 A 
HETATM    4  C   UNK N   1      33.769 -20.356 -72.788  0.00  0.00     0.068 A 
HETATM    5  C   UNK N   1      32.859 -19.784 -71.891  0.00  0.00     0.037 A 
HETATM    6  C   UNK N   1      33.687 -20.037 -74.156  0.00  0.00     0.037 A 
ENDROOT
BRANCH   1   7
HETATM    7  C   UNK N   1      30.762 -17.625 -74.240  0.00  0.00     0.064 C 
BRANCH   7   8
HETATM    8  C   UNK N   1      29.387 -18.078 -73.835  0.00  0.00    -0.032 C 
HETATM    9  C   UNK N   1      28.401 -18.213 -74.728  0.00  0.00     0.007 C 
ENDBRANCH   7   8
ENDBRANCH   1   7
BRANCH   4  10
HETATM   10  O   UNK N   1      34.720 -21.212 -72.312  0.00  0.00    -0.356 OA
HETATM   11  C   UNK N   1      35.970 -20.815 -71.882  0.00  0.00     0.210 C 
ENDBRANCH   4  10
TORSDOF 3
ENDMDL
MODEL 5
REMARK VINA RESULT:      -5.7      2.071      4.888
REMARK  3 active torsions:
REMARK  status: ('A' for Active; 'I' for Inactive)
REMARK    1  A    between atoms: O_1  and  C_6 
REMARK    2  A    between atoms: C_2  and  C_3 
REMARK    3  A    between atoms: C_3  and  C_9 
ROOT
HETATM    1  C   UNK N   1      30.328 -18.050 -75.064  0.00  0.00    -0.055 A 
HETATM    2  C   UNK N   1      29.441 -18.328 -74.012  0.00  0.00     0.010 A 
HETATM    3  C   UNK N   1      31.706 -18.179 -74.860  0.00  0.00     0.010 A 
HETATM    4  C   UNK N   1      31.317 -18.854 -72.558  0.00  0.00     0.068 A 
HETATM    5  C   UNK N   1      29.936 -18.730 -72.761  0.00  0.00     0.037 A 
HETATM    6  C   UNK N   1      32.200 -18.576 -73.618  0.00  0.00     0.037 A 
ENDROOT
BRANCH   1   7
HETATM    7  C   UNK N   1      29.821 -17.608 -76.409  0.00  0.00     0.064 C 
BRANCH   7   8
HETATM    8  C   UNK N   1      30.936 -17.623 -77.417  0.00  0.00    -0.032 C 
HETATM    9  C   UNK N   1      31.062 -16.662 -78.339  0.00  0.00     0.007 C 
ENDBRANCH   7   8
ENDBRANCH   1   7
BRANCH   4  10
HETATM   10  O   UNK N   1      31.775 -19.241 -71.332  0.00  0.00    -0.356 OA
HETATM   11  C   UNK N   1      33.029 -18.931 -70.844  0.00  0.00     0.210 C 
ENDBRANCH   4  10
TORSDOF 3
ENDMDL
MODEL 6
REMARK VINA RESULT:      -5.6      5.033      6.752
REMARK  3 active torsions:
REMARK  status: ('A' for Active; 'I' for Inactive)
REMARK    1  A    between atoms: O_1  and  C_6 
REMARK    2  A    between atoms: C_2  and  C_3 
REMARK    3  A    between atoms: C_3  and  C_9 
ROOT
HETATM    1  C   UNK N   1      34.970 -20.838 -71.846  0.00  0.00    -0.055 A 
HETATM    2  C   UNK N   1      36.109 -21.374 -71.226  0.00  0.00     0.010 A 
HETATM    3  C   UNK N   1      34.698 -21.148 -73.182  0.00  0.00     0.010 A 
HETATM    4  C   UNK N   1      36.701 -22.519 -73.287  0.00  0.00     0.068 A 
HETATM    5  C   UNK N   1      36.974 -22.214 -71.947  0.00  0.00     0.037 A 
HETATM    6  C   UNK N   1      35.555 -21.981 -73.900  0.00  0.00     0.037 A 
ENDROOT
BRANCH   1   7
HETATM    7  C   UNK N   1      34.036 -19.928 -71.096  0.00  0.00     0.064 C 
BRANCH   7   8
HETATM    8  C   UNK N   1      32.653 -20.004 -71.680  0.00  0.00    -0.032 C 
HETATM    9  C   UNK N   1      32.024 -18.916 -72.139  0.00  0.00     0.007 C 
ENDBRANCH   7   8
ENDBRANCH   1   7
BRANCH   4  10
HETATM   10  O   UNK N   1      37.558 -23.334 -73.969  0.00  0.00    -0.356 OA
HETATM   11  C   UNK N   1      37.186 -24.117 -75.043  0.00  0.00     0.210 C 
ENDBRANCH   4  10
TORSDOF 3
ENDMDL
MODEL 7
REMARK VINA RESULT:      -5.6      2.308      3.003
REMARK  3 active torsions:
REMARK  status: ('A' for Active; 'I' for Inactive)
REMARK    1  A    between atoms: O_1  and  C_6 
REMARK    2  A    between atoms: C_2  and  C_3 
REMARK    3  A    between atoms: C_3  and  C_9 
ROOT
HETATM    1  C   UNK N   1      32.446 -18.860 -74.205  0.00  0.00    -0.055 A 
HETATM    2  C   UNK N   1      33.383 -19.898 -74.325  0.00  0.00     0.010 A 
HETATM    3  C   UNK N   1      32.011 -18.182 -75.349  0.00  0.00     0.010 A 
HETATM    4  C   UNK N   1      33.451 -19.567 -76.733  0.00  0.00     0.068 A 
HETATM    5  C   UNK N   1      33.884 -20.251 -75.589  0.00  0.00     0.037 A 
HETATM    6  C   UNK N   1      32.509 -18.530 -76.604  0.00  0.00     0.037 A 
ENDROOT
BRANCH   1   7
HETATM    7  C   UNK N   1      31.904 -18.458 -72.861  0.00  0.00     0.064 C 
BRANCH   7   8
HETATM    8  C   UNK N   1      32.543 -19.277 -71.775  0.00  0.00    -0.032 C 
HETATM    9  C   UNK N   1      32.854 -18.747 -70.587  0.00  0.00     0.007 C 
ENDBRANCH   7   8
ENDBRANCH   1   7
BRANCH   4  10
HETATM   10  O   UNK N   1      33.955 -19.925 -77.950  0.00  0.00    -0.356 OA
HETATM   11  C   UNK N   1      33.410 -19.532 -79.156  0.00  0.00     0.210 C 
ENDBRANCH   4  10
TORSDOF 3
ENDMDL
MODEL 8
REMARK VINA RESULT:      -5.3      2.348      3.505
REMARK  3 active torsions:
REMARK  status: ('A' for Active; 'I' for Inactive)
REMARK    1  A    between atoms: O_1  and  C_6 
REMARK    2  A    between atoms: C_2  and  C_3 
REMARK    3  A    between atoms: C_3  and  C_9 
ROOT
HETATM    1  C   UNK N   1      33.659 -20.212 -73.223  0.00  0.00    -0.055 A 
HETATM    2  C   UNK N   1      33.481 -19.800 -74.553  0.00  0.00     0.010 A 
HETATM    3  C   UNK N   1      32.850 -19.673 -72.217  0.00  0.00     0.010 A 
HETATM    4  C   UNK N   1      31.692 -18.308 -73.859  0.00  0.00     0.068 A 
HETATM    5  C   UNK N   1      32.497 -18.848 -74.870  0.00  0.00     0.037 A 
HETATM    6  C   UNK N   1      31.875 -18.727 -72.529  0.00  0.00     0.037 A 
ENDROOT
BRANCH   1   7
HETATM    7  C   UNK N   1      34.713 -21.221 -72.860  0.00  0.00     0.064 C 
BRANCH   7   8
HETATM    8  C   UNK N   1      35.208 -20.977 -71.462  0.00  0.00    -0.032 C 
HETATM    9  C   UNK N   1      36.253 -21.645 -70.961  0.00  0.00     0.007 C 
ENDBRANCH   7   8
ENDBRANCH   1   7
BRANCH   4  10
HETATM   10  O   UNK N   1      30.745 -17.381 -74.190  0.00  0.00    -0.356 OA
HETATM   11  C   UNK N   1      29.410 -17.677 -74.380  0.00  0.00     0.210 C 
ENDBRANCH   4  10
TORSDOF 3
ENDMDL
MODEL 9
REMARK VINA RESULT:      -5.1      2.770      5.277
REMARK  3 active torsions:
REMARK  status: ('A' for Active; 'I' for Inactive)
REMARK    1  A    between atoms: O_1  and  C_6 
REMARK    2  A    between atoms: C_2  and  C_3 
REMARK    3  A    between atoms: C_3  and  C_9 
ROOT
HETATM    1  C   UNK N   1      32.496 -18.761 -75.040  0.00  0.00    -0.055 A 
HETATM    2  C   UNK N   1      31.907 -18.384 -73.824  0.00  0.00     0.010 A 
HETATM    3  C   UNK N   1      33.466 -19.768 -75.058  0.00  0.00     0.010 A 
HETATM    4  C   UNK N   1      33.268 -20.020 -72.649  0.00  0.00     0.068 A 
HETATM    5  C   UNK N   1      32.294 -19.015 -72.629  0.00  0.00     0.037 A 
HETATM    6  C   UNK N   1      33.853 -20.394 -73.874  0.00  0.00     0.037 A 
ENDROOT
BRANCH   1   7
HETATM    7  C   UNK N   1      32.105 -18.093 -76.330  0.00  0.00     0.064 C 
BRANCH   7   8
HETATM    8  C   UNK N   1      30.671 -17.647 -76.272  0.00  0.00    -0.032 C 
HETATM    9  C   UNK N   1      29.708 -18.291 -76.941  0.00  0.00     0.007 C 
ENDBRANCH   7   8
ENDBRANCH   1   7
BRANCH   4  10
HETATM   10  O   UNK N   1      33.632 -20.616 -71.476  0.00  0.00    -0.356 OA
HETATM   11  C   UNK N   1      34.916 -21.032 -71.188  0.00  0.00     0.210 C 
ENDBRANCH   4  10
TORSDOF 3
ENDMDL
