MODEL 1
REMARK VINA RESULT:      -5.6      0.000      0.000
REMARK  4 active torsions:
REMARK  status: ('A' for Active; 'I' for Inactive)
REMARK    1  A    between atoms: C_1  and  C_2 
REMARK    2  A    between atoms: C_1  and  C_3 
REMARK    3  A    between atoms: C_2  and  C_4 
REMARK    4  A    between atoms: C_3  and  C_5 
ROOT
HETATM    1  C   UNK N   1      32.108 -18.750 -75.497  0.00  0.00    -0.011 C 
HETATM    2  C   UNK N   1      33.328 -19.610 -75.090  0.00  0.00     0.010 C 
ENDROOT
BRANCH   1   3
HETATM    3  C   UNK N   1      32.432 -17.876 -76.769  0.00  0.00    -0.015 C 
HETATM    4  C   UNK N   1      33.787 -18.258 -77.403  0.00  0.00     0.010 C 
BRANCH   3   5
HETATM    5  C   UNK N   1      31.324 -17.914 -77.861  0.00  0.00     0.000 C 
HETATM    6  C   UNK N   1      30.947 -16.552 -78.450  0.00  0.00     0.005 C 
ENDBRANCH   3   5
ENDBRANCH   1   3
BRANCH   1   7
HETATM    7  C   UNK N   1      31.563 -17.908 -74.283  0.00  0.00    -0.015 C 
HETATM    8  C   UNK N   1      31.763 -18.614 -72.928  0.00  0.00     0.010 C 
BRANCH   7   9
HETATM    9  C   UNK N   1      30.074 -17.486 -74.411  0.00  0.00     0.000 C 
HETATM   10  C   UNK N   1      29.105 -18.426 -73.690  0.00  0.00     0.005 C 
ENDBRANCH   7   9
ENDBRANCH   1   7
TORSDOF 4
ENDMDL
MODEL 2
REMARK VINA RESULT:      -5.6      1.387      2.017
REMARK  4 active torsions:
REMARK  status: ('A' for Active; 'I' for Inactive)
REMARK    1  A    between atoms: C_1  and  C_2 
REMARK    2  A    between atoms: C_1  and  C_3 
REMARK    3  A    between atoms: C_2  and  C_4 
REMARK    4  A    between atoms: C_3  and  C_5 
ROOT
HETATM    1  C   UNK N   1      31.359 -18.231 -76.157  0.00  0.00    -0.011 C 
HETATM    2  C   UNK N   1      32.826 -18.014 -76.600  0.00  0.00     0.010 C 
ENDROOT
BRANCH   1   3
HETATM    3  C   UNK N   1      30.355 -17.747 -77.274  0.00  0.00    -0.015 C 
HETATM    4  C   UNK N   1      31.019 -16.767 -78.264  0.00  0.00     0.010 C 
BRANCH   3   5
HETATM    5  C   UNK N   1      29.686 -18.907 -78.067  0.00  0.00     0.000 C 
HETATM    6  C   UNK N   1      28.162 -18.982 -77.944  0.00  0.00     0.005 C 
ENDBRANCH   3   5
ENDBRANCH   1   3
BRANCH   1   7
HETATM    7  C   UNK N   1      31.081 -17.590 -74.746  0.00  0.00    -0.015 C 
HETATM    8  C   UNK N   1      31.556 -18.480 -73.581  0.00  0.00     0.010 C 
BRANCH   7   9
HETATM    9  C   UNK N   1      29.599 -17.196 -74.501  0.00  0.00     0.000 C 
HETATM   10  C   UNK N   1      28.778 -18.291 -73.815  0.00  0.00     0.005 C 
ENDBRANCH   7   9
ENDBRANCH   1   7
TORSDOF 4
ENDMDL
MODEL 3
REMARK VINA RESULT:      -5.6      1.064      4.500
REMARK  4 active torsions:
REMARK  status: ('A' for Active; 'I' for Inactive)
REMARK    1  A    between atoms: C_1  and  C_2 
REMARK    2  A    between atoms: C_1  and  C_3 
REMARK    3  A    between atoms: C_2  and  C_4 
REMARK    4  A    between atoms: C_3  and  C_5 
ROOT
HETATM    1  C   UNK N   1      31.253 -18.323 -75.679  0.00  0.00    -0.011 C 
HETATM    2  C   UNK N   1      30.622 -17.379 -76.730  0.00  0.00     0.010 C 
ENDROOT
BRANCH   1   3
HETATM    3  C   UNK N   1      30.920 -17.839 -74.215  0.00  0.00    -0.015 C 
HETATM    4  C   UNK N   1      29.604 -18.450 -73.688  0.00  0.00     0.010 C 
BRANCH   3   5
HETATM    5  C   UNK N   1      32.058 -18.106 -73.188  0.00  0.00     0.000 C 
HETATM    6  C   UNK N   1      31.737 -19.156 -72.121  0.00  0.00     0.005 C 
ENDBRANCH   3   5
ENDBRANCH   1   3
BRANCH   1   7
HETATM    7  C   UNK N   1      32.793 -18.527 -75.935  0.00  0.00    -0.015 C 
HETATM    8  C   UNK N   1      33.318 -17.692 -77.118  0.00  0.00     0.010 C 
BRANCH   7   9
HETATM    9  C   UNK N   1      33.219 -20.006 -76.140  0.00  0.00     0.000 C 
HETATM   10  C   UNK N   1      34.158 -20.532 -75.051  0.00  0.00     0.005 C 
ENDBRANCH   7   9
ENDBRANCH   1   7
TORSDOF 4
ENDMDL
MODEL 4
REMARK VINA RESULT:      -5.5      0.958      3.765
REMARK  4 active torsions:
REMARK  status: ('A' for Active; 'I' for Inactive)
REMARK    1  A    between atoms: C_1  and  C_2 
REMARK    2  A    between atoms: C_1  and  C_3 
REMARK    3  A    between atoms: C_2  and  C_4 
REMARK    4  A    between atoms: C_3  and  C_5 
ROOT
HETATM    1  C   UNK N   1      32.299 -18.365 -75.534  0.00  0.00    -0.011 C 
HETATM    2  C   UNK N   1      33.332 -19.515 -75.449  0.00  0.00     0.010 C 
ENDROOT
BRANCH   1   3
HETATM    3  C   UNK N   1      31.335 -18.379 -74.286  0.00  0.00    -0.015 C 
HETATM    4  C   UNK N   1      32.098 -18.151 -72.963  0.00  0.00     0.010 C 
BRANCH   3   5
HETATM    5  C   UNK N   1      30.160 -17.364 -74.384  0.00  0.00     0.000 C 
HETATM    6  C   UNK N   1      28.762 -17.979 -74.284  0.00  0.00     0.005 C 
ENDBRANCH   3   5
ENDBRANCH   1   3
BRANCH   1   7
HETATM    7  C   UNK N   1      31.538 -18.374 -76.912  0.00  0.00    -0.015 C 
HETATM    8  C   UNK N   1      31.929 -19.567 -77.805  0.00  0.00     0.010 C 
BRANCH   7   9
HETATM    9  C   UNK N   1      31.686 -17.066 -77.736  0.00  0.00     0.000 C 
HETATM   10  C   UNK N   1      30.404 -16.649 -78.461  0.00  0.00     0.005 C 
ENDBRANCH   7   9
ENDBRANCH   1   7
TORSDOF 4
ENDMDL
MODEL 5
REMARK VINA RESULT:      -5.5      4.791      6.663
REMARK  4 active torsions:
REMARK  status: ('A' for Active; 'I' for Inactive)
REMARK    1  A    between atoms: C_1  and  C_2 
REMARK    2  A    between atoms: C_1  and  C_3 
REMARK    3  A    between atoms: C_2  and  C_4 
REMARK    4  A    between atoms: C_3  and  C_5 
ROOT
HETATM    1  C   UNK N   1      35.610 -20.992 -72.499  0.00  0.00    -0.011 C 
HETATM    2  C   UNK N   1      34.818 -21.475 -73.738  0.00  0.00     0.010 C 
ENDROOT
BRANCH   1   3
HETATM    3  C   UNK N   1      36.793 -21.980 -72.165  0.00  0.00    -0.015 C 
HETATM    4  C   UNK N   1      37.144 -22.888 -73.363  0.00  0.00     0.010 C 
BRANCH   3   5
HETATM    5  C   UNK N   1      38.084 -21.272 -71.661  0.00  0.00     0.000 C 
HETATM    6  C   UNK N   1      37.919 -19.789 -71.320  0.00  0.00     0.005 C 
ENDBRANCH   3   5
ENDBRANCH   1   3
BRANCH   1   7
HETATM    7  C   UNK N   1      34.658 -20.720 -71.275  0.00  0.00    -0.015 C 
HETATM    8  C   UNK N   1      34.886 -21.704 -70.111  0.00  0.00     0.010 C 
BRANCH   7   9
HETATM    9  C   UNK N   1      33.146 -20.705 -71.628  0.00  0.00     0.000 C 
HETATM   10  C   UNK N   1      32.476 -19.348 -71.400  0.00  0.00     0.005 C 
ENDBRANCH   7   9
ENDBRANCH   1   7
TORSDOF 4
ENDMDL
MODEL 6
REMARK VINA RESULT:      -5.5      1.337      2.872
REMARK  4 active torsions:
REMARK  status: ('A' for Active; 'I' for Inactive)
REMARK    1  A    between atoms: C_1  and  C_2 
REMARK    2  A    between atoms: C_1  and  C_3 
REMARK    3  A    between atoms: C_2  and  C_4 
REMARK    4  A    between atoms: C_3  and  C_5 
ROOT
HETATM    1  C   UNK N   1      30.241 -17.520 -74.854  0.00  0.00    -0.011 C 
HETATM    2  C   UNK N   1      28.925 -18.057 -74.241  0.00  0.00     0.010 C 
ENDROOT
BRANCH   1   3
HETATM    3  C   UNK N   1      30.329 -17.862 -76.391  0.00  0.00    -0.015 C 
HETATM    4  C   UNK N   1      29.052 -18.565 -76.901  0.00  0.00     0.010 C 
BRANCH   3   5
HETATM    5  C   UNK N   1      30.636 -16.633 -77.295  0.00  0.00     0.000 C 
HETATM    6  C   UNK N   1      30.903 -16.961 -78.766  0.00  0.00     0.005 C 
ENDBRANCH   3   5
ENDBRANCH   1   3
BRANCH   1   7
HETATM    7  C   UNK N   1      31.497 -17.999 -74.034  0.00  0.00    -0.015 C 
HETATM    8  C   UNK N   1      32.508 -18.784 -74.893  0.00  0.00     0.010 C 
BRANCH   7   9
HETATM    9  C   UNK N   1      31.159 -18.837 -72.771  0.00  0.00     0.000 C 
HETATM   10  C   UNK N   1      32.336 -18.996 -71.806  0.00  0.00     0.005 C 
ENDBRANCH   7   9
ENDBRANCH   1   7
TORSDOF 4
ENDMDL
MODEL 7
REMARK VINA RESULT:      -5.4      1.030      3.050
REMARK  4 active torsions:
REMARK  status: ('A' for Active; 'I' for Inactive)
REMARK    1  A    between atoms: C_1  and  C_2 
REMARK    2  A    between atoms: C_1  and  C_3 
REMARK    3  A    between atoms: C_2  and  C_4 
REMARK    4  A    between atoms: C_3  and  C_5 
ROOT
HETATM    1  C   UNK N   1      31.089 -17.574 -74.729  0.00  0.00    -0.011 C 
HETATM    2  C   UNK N   1      29.800 -16.718 -74.767  0.00  0.00     0.010 C 
ENDROOT
BRANCH   1   3
HETATM    3  C   UNK N   1      31.399 -18.190 -76.148  0.00  0.00    -0.015 C 
HETATM    4  C   UNK N   1      30.668 -17.435 -77.279  0.00  0.00     0.010 C 
BRANCH   3   5
HETATM    5  C   UNK N   1      32.916 -18.274 -76.482  0.00  0.00     0.000 C 
HETATM    6  C   UNK N   1      33.611 -19.559 -76.024  0.00  0.00     0.005 C 
ENDBRANCH   3   5
ENDBRANCH   1   3
BRANCH   1   7
HETATM    7  C   UNK N   1      31.035 -18.648 -73.579  0.00  0.00    -0.015 C 
HETATM    8  C   UNK N   1      29.660 -18.715 -72.887  0.00  0.00     0.010 C 
BRANCH   7   9
HETATM    9  C   UNK N   1      32.133 -18.482 -72.494  0.00  0.00     0.000 C 
HETATM   10  C   UNK N   1      32.200 -19.649 -71.505  0.00  0.00     0.005 C 
ENDBRANCH   7   9
ENDBRANCH   1   7
TORSDOF 4
ENDMDL
MODEL 8
REMARK VINA RESULT:      -5.4      4.678      6.937
REMARK  4 active torsions:
REMARK  status: ('A' for Active; 'I' for Inactive)
REMARK    1  A    between atoms: C_1  and  C_2 
REMARK    2  A    between atoms: C_1  and  C_3 
REMARK    3  A    between atoms: C_2  and  C_4 
REMARK    4  A    between atoms: C_3  and  C_5 
ROOT
HETATM    1  C   UNK N   1      35.406 -21.730 -71.049  0.00  0.00    -0.011 C 
HETATM    2  C   UNK N   1      35.059 -21.673 -69.542  0.00  0.00     0.010 C 
ENDROOT
BRANCH   1   3
HETATM    3  C   UNK N   1      36.967 -21.774 -71.268  0.00  0.00    -0.015 C 
HETATM    4  C   UNK N   1      37.350 -22.553 -72.544  0.00  0.00     0.010 C 
BRANCH   3   5
HETATM    5  C   UNK N   1      37.641 -20.372 -71.299  0.00  0.00     0.000 C 
HETATM    6  C   UNK N   1      38.062 -19.885 -72.688  0.00  0.00     0.005 C 
ENDBRANCH   3   5
ENDBRANCH   1   3
BRANCH   1   7
HETATM    7  C   UNK N   1      34.695 -20.575 -71.849  0.00  0.00    -0.015 C 
HETATM    8  C   UNK N   1      33.739 -19.741 -70.974  0.00  0.00     0.010 C 
BRANCH   7   9
HETATM    9  C   UNK N   1      33.929 -21.048 -73.115  0.00  0.00     0.000 C 
HETATM   10  C   UNK N   1      34.712 -20.853 -74.415  0.00  0.00     0.005 C 
ENDBRANCH   7   9
ENDBRANCH   1   7
TORSDOF 4
ENDMDL
MODEL 9
REMARK VINA RESULT:      -5.2      1.223      3.909
REMARK  4 active torsions:
REMARK  status: ('A' for Active; 'I' for Inactive)
REMARK    1  A    between atoms: C_1  and  C_2 
REMARK    2  A    between atoms: C_1  and  C_3 
REMARK    3  A    between atoms: C_2  and  C_4 
REMARK    4  A    between atoms: C_3  and  C_5 
ROOT
HETATM    1  C   UNK N   1      31.893 -17.698 -76.654  0.00  0.00    -0.011 C 
HETATM    2  C   UNK N   1      33.282 -18.369 -76.779  0.00  0.00     0.010 C 
ENDROOT
BRANCH   1   3
HETATM    3  C   UNK N   1      31.153 -18.172 -75.344  0.00  0.00    -0.015 C 
HETATM    4  C   UNK N   1      32.145 -18.554 -74.225  0.00  0.00     0.010 C 
BRANCH   3   5
HETATM    5  C   UNK N   1      30.125 -17.143 -74.791  0.00  0.00     0.000 C 
HETATM    6  C   UNK N   1      28.822 -17.747 -74.261  0.00  0.00     0.005 C 
ENDBRANCH   3   5
ENDBRANCH   1   3
BRANCH   1   7
HETATM    7  C   UNK N   1      31.037 -17.893 -77.961  0.00  0.00    -0.015 C 
HETATM    8  C   UNK N   1      30.409 -16.579 -78.466  0.00  0.00     0.010 C 
BRANCH   7   9
HETATM    9  C   UNK N   1      29.921 -18.966 -77.843  0.00  0.00     0.000 C 
HETATM   10  C   UNK N   1      30.129 -20.171 -78.765  0.00  0.00     0.005 C 
ENDBRANCH   7   9
ENDBRANCH   1   7
TORSDOF 4
ENDMDL
