MODEL 1
REMARK VINA RESULT:      -7.4      0.000      0.000
REMARK  3 active torsions:
REMARK  status: ('A' for Active; 'I' for Inactive)
REMARK    1  A    between atoms: C_1  and  C_6 
REMARK    2  A    between atoms: C_6  and  C_10 
REMARK    3  A    between atoms: C_10  and  C_12 
ROOT
HETATM    1  C   UNK N   1      38.251 -24.796 -75.161  0.00  0.00    -0.033 C 
HETATM    2  C   UNK N   1      37.823 -26.240 -75.576  0.00  0.00    -0.002 C 
HETATM    3  C   UNK N   1      39.683 -25.241 -75.575  0.00  0.00     0.023 C 
HETATM    4  C   UNK N   1      39.033 -26.253 -76.548  0.00  0.00     0.015 C 
HETATM    5  C   UNK N   1      38.149 -27.280 -74.452  0.00  0.00     0.033 C 
HETATM    6  C   UNK N   1      40.313 -26.078 -74.459  0.00  0.00    -0.083 C 
HETATM    7  C   UNK N   1      37.651 -23.738 -76.142  0.00  0.00     0.016 C 
HETATM    8  C   UNK N   1      39.562 -27.072 -73.922  0.00  0.00    -0.024 C 
HETATM    9  C   UNK N   1      41.713 -25.803 -73.992  0.00  0.00     0.043 C 
ENDROOT
BRANCH   1  10
HETATM   10  C   UNK N   1      38.004 -24.328 -73.683  0.00  0.00     0.014 C 
BRANCH  10  11
HETATM   11  C   UNK N   1      37.109 -23.074 -73.590  0.00  0.00     0.028 C 
BRANCH  11  12
HETATM   12  C   UNK N   1      37.773 -21.927 -72.861  0.00  0.00    -0.025 C 
HETATM   13  C   UNK N   1      37.352 -21.392 -71.688  0.00  0.00    -0.091 C 
HETATM   14  C   UNK N   1      38.132 -20.261 -71.070  0.00  0.00     0.042 C 
HETATM   15  C   UNK N   1      36.148 -21.893 -70.925  0.00  0.00     0.042 C 
ENDBRANCH  11  12
ENDBRANCH  10  11
ENDBRANCH   1  10
TORSDOF 3
ENDMDL
MODEL 2
REMARK VINA RESULT:      -7.0      8.251     10.385
REMARK  3 active torsions:
REMARK  status: ('A' for Active; 'I' for Inactive)
REMARK    1  A    between atoms: C_1  and  C_6 
REMARK    2  A    between atoms: C_6  and  C_10 
REMARK    3  A    between atoms: C_10  and  C_12 
ROOT
HETATM    1  C   UNK N   1      32.271 -19.316 -78.354  0.00  0.00    -0.033 C 
HETATM    2  C   UNK N   1      32.328 -19.352 -79.915  0.00  0.00    -0.002 C 
HETATM    3  C   UNK N   1      30.916 -20.063 -78.515  0.00  0.00     0.023 C 
HETATM    4  C   UNK N   1      31.443 -20.626 -79.856  0.00  0.00     0.015 C 
HETATM    5  C   UNK N   1      31.440 -18.227 -80.546  0.00  0.00     0.033 C 
HETATM    6  C   UNK N   1      29.812 -19.068 -78.882  0.00  0.00    -0.083 C 
HETATM    7  C   UNK N   1      33.383 -20.226 -77.740  0.00  0.00     0.016 C 
HETATM    8  C   UNK N   1      30.072 -18.182 -79.876  0.00  0.00    -0.024 C 
HETATM    9  C   UNK N   1      28.493 -19.091 -78.167  0.00  0.00     0.043 C 
ENDROOT
BRANCH   1  10
HETATM   10  C   UNK N   1      32.284 -17.924 -77.627  0.00  0.00     0.014 C 
BRANCH  10  11
HETATM   11  C   UNK N   1      32.223 -18.046 -76.090  0.00  0.00     0.028 C 
BRANCH  11  12
HETATM   12  C   UNK N   1      30.813 -17.971 -75.548  0.00  0.00    -0.025 C 
HETATM   13  C   UNK N   1      30.454 -18.193 -74.259  0.00  0.00    -0.091 C 
HETATM   14  C   UNK N   1      29.006 -18.060 -73.862  0.00  0.00     0.042 C 
HETATM   15  C   UNK N   1      31.436 -18.536 -73.164  0.00  0.00     0.042 C 
ENDBRANCH  11  12
ENDBRANCH  10  11
ENDBRANCH   1  10
TORSDOF 3
ENDMDL
MODEL 3
REMARK VINA RESULT:      -6.8      7.598      9.967
REMARK  3 active torsions:
REMARK  status: ('A' for Active; 'I' for Inactive)
REMARK    1  A    between atoms: C_1  and  C_6 
REMARK    2  A    between atoms: C_6  and  C_10 
REMARK    3  A    between atoms: C_10  and  C_12 
ROOT
HETATM    1  C   UNK N   1      31.997 -18.975 -77.687  0.00  0.00    -0.033 C 
HETATM    2  C   UNK N   1      31.523 -18.016 -78.826  0.00  0.00    -0.002 C 
HETATM    3  C   UNK N   1      30.487 -19.083 -77.327  0.00  0.00     0.023 C 
HETATM    4  C   UNK N   1      30.163 -18.765 -78.806  0.00  0.00     0.015 C 
HETATM    5  C   UNK N   1      31.242 -16.575 -78.281  0.00  0.00     0.033 C 
HETATM    6  C   UNK N   1      30.051 -17.853 -76.527  0.00  0.00    -0.083 C 
HETATM    7  C   UNK N   1      32.563 -20.304 -78.283  0.00  0.00     0.016 C 
HETATM    8  C   UNK N   1      30.417 -16.636 -77.001  0.00  0.00    -0.024 C 
HETATM    9  C   UNK N   1      29.243 -18.003 -75.272  0.00  0.00     0.043 C 
ENDROOT
BRANCH   1  10
HETATM   10  C   UNK N   1      32.994 -18.430 -76.603  0.00  0.00     0.014 C 
BRANCH  10  11
HETATM   11  C   UNK N   1      33.235 -19.427 -75.451  0.00  0.00     0.028 C 
BRANCH  11  12
HETATM   12  C   UNK N   1      32.579 -19.003 -74.156  0.00  0.00    -0.025 C 
HETATM   13  C   UNK N   1      32.847 -19.522 -72.932  0.00  0.00    -0.091 C 
HETATM   14  C   UNK N   1      32.124 -18.980 -71.725  0.00  0.00     0.042 C 
HETATM   15  C   UNK N   1      33.872 -20.605 -72.689  0.00  0.00     0.042 C 
ENDBRANCH  11  12
ENDBRANCH  10  11
ENDBRANCH   1  10
TORSDOF 3
ENDMDL
MODEL 4
REMARK VINA RESULT:      -6.6      3.948      6.133
REMARK  3 active torsions:
REMARK  status: ('A' for Active; 'I' for Inactive)
REMARK    1  A    between atoms: C_1  and  C_6 
REMARK    2  A    between atoms: C_6  and  C_10 
REMARK    3  A    between atoms: C_10  and  C_12 
ROOT
HETATM    1  C   UNK N   1      35.191 -21.148 -73.198  0.00  0.00    -0.033 C 
HETATM    2  C   UNK N   1      36.073 -22.418 -73.423  0.00  0.00    -0.002 C 
HETATM    3  C   UNK N   1      36.535 -20.366 -73.234  0.00  0.00     0.023 C 
HETATM    4  C   UNK N   1      37.111 -21.496 -74.119  0.00  0.00     0.015 C 
HETATM    5  C   UNK N   1      36.736 -22.899 -72.088  0.00  0.00     0.033 C 
HETATM    6  C   UNK N   1      37.246 -20.485 -71.884  0.00  0.00    -0.083 C 
HETATM    7  C   UNK N   1      34.302 -20.863 -74.451  0.00  0.00     0.016 C 
HETATM    8  C   UNK N   1      37.345 -21.722 -71.335  0.00  0.00    -0.024 C 
HETATM    9  C   UNK N   1      37.814 -19.272 -71.208  0.00  0.00     0.043 C 
ENDROOT
BRANCH   1  10
HETATM   10  C   UNK N   1      34.302 -21.063 -71.906  0.00  0.00     0.014 C 
BRANCH  10  11
HETATM   11  C   UNK N   1      33.759 -19.643 -71.641  0.00  0.00     0.028 C 
BRANCH  11  12
HETATM   12  C   UNK N   1      32.247 -19.581 -71.632  0.00  0.00    -0.025 C 
HETATM   13  C   UNK N   1      31.482 -18.917 -72.534  0.00  0.00    -0.091 C 
HETATM   14  C   UNK N   1      29.981 -18.964 -72.406  0.00  0.00     0.042 C 
HETATM   15  C   UNK N   1      32.047 -18.148 -73.704  0.00  0.00     0.042 C 
ENDBRANCH  11  12
ENDBRANCH  10  11
ENDBRANCH   1  10
TORSDOF 3
ENDMDL
MODEL 5
REMARK VINA RESULT:      -6.5      8.472     10.329
REMARK  3 active torsions:
REMARK  status: ('A' for Active; 'I' for Inactive)
REMARK    1  A    between atoms: C_1  and  C_6 
REMARK    2  A    between atoms: C_6  and  C_10 
REMARK    3  A    between atoms: C_10  and  C_12 
ROOT
HETATM    1  C   UNK N   1      30.884 -18.025 -78.479  0.00  0.00    -0.033 C 
HETATM    2  C   UNK N   1      30.064 -18.582 -79.687  0.00  0.00    -0.002 C 
HETATM    3  C   UNK N   1      32.120 -18.628 -79.205  0.00  0.00     0.023 C 
HETATM    4  C   UNK N   1      31.356 -18.458 -80.540  0.00  0.00     0.015 C 
HETATM    5  C   UNK N   1      29.785 -20.115 -79.530  0.00  0.00     0.033 C 
HETATM    6  C   UNK N   1      32.191 -20.136 -78.951  0.00  0.00    -0.083 C 
HETATM    7  C   UNK N   1      30.891 -16.462 -78.490  0.00  0.00     0.016 C 
HETATM    8  C   UNK N   1      31.052 -20.854 -79.117  0.00  0.00    -0.024 C 
HETATM    9  C   UNK N   1      33.482 -20.783 -78.541  0.00  0.00     0.043 C 
ENDROOT
BRANCH   1  10
HETATM   10  C   UNK N   1      30.538 -18.528 -77.032  0.00  0.00     0.014 C 
BRANCH  10  11
HETATM   11  C   UNK N   1      30.914 -17.511 -75.934  0.00  0.00     0.028 C 
BRANCH  11  12
HETATM   12  C   UNK N   1      30.805 -18.082 -74.538  0.00  0.00    -0.025 C 
HETATM   13  C   UNK N   1      29.646 -18.327 -73.877  0.00  0.00    -0.091 C 
HETATM   14  C   UNK N   1      29.697 -18.919 -72.492  0.00  0.00     0.042 C 
HETATM   15  C   UNK N   1      28.278 -18.074 -74.465  0.00  0.00     0.042 C 
ENDBRANCH  11  12
ENDBRANCH  10  11
ENDBRANCH   1  10
TORSDOF 3
ENDMDL
MODEL 6
REMARK VINA RESULT:      -6.5      8.811     10.514
REMARK  3 active torsions:
REMARK  status: ('A' for Active; 'I' for Inactive)
REMARK    1  A    between atoms: C_1  and  C_6 
REMARK    2  A    between atoms: C_6  and  C_10 
REMARK    3  A    between atoms: C_10  and  C_12 
ROOT
HETATM    1  C   UNK N   1      30.261 -18.732 -79.100  0.00  0.00    -0.033 C 
HETATM    2  C   UNK N   1      30.732 -20.099 -78.507  0.00  0.00    -0.002 C 
HETATM    3  C   UNK N   1      30.650 -19.343 -80.477  0.00  0.00     0.023 C 
HETATM    4  C   UNK N   1      30.381 -20.742 -79.876  0.00  0.00     0.015 C 
HETATM    5  C   UNK N   1      32.291 -20.160 -78.378  0.00  0.00     0.033 C 
HETATM    6  C   UNK N   1      32.165 -19.255 -80.679  0.00  0.00    -0.083 C 
HETATM    7  C   UNK N   1      28.716 -18.563 -78.939  0.00  0.00     0.016 C 
HETATM    8  C   UNK N   1      32.957 -19.661 -79.655  0.00  0.00    -0.024 C 
HETATM    9  C   UNK N   1      32.738 -18.746 -81.969  0.00  0.00     0.043 C 
ENDROOT
BRANCH   1  10
HETATM   10  C   UNK N   1      30.976 -17.415 -78.629  0.00  0.00     0.014 C 
BRANCH  10  11
HETATM   11  C   UNK N   1      30.419 -16.871 -77.297  0.00  0.00     0.028 C 
BRANCH  11  12
HETATM   12  C   UNK N   1      31.170 -17.385 -76.089  0.00  0.00    -0.025 C 
HETATM   13  C   UNK N   1      30.600 -17.876 -74.960  0.00  0.00    -0.091 C 
HETATM   14  C   UNK N   1      31.483 -18.373 -73.844  0.00  0.00     0.042 C 
HETATM   15  C   UNK N   1      29.108 -17.997 -74.761  0.00  0.00     0.042 C 
ENDBRANCH  11  12
ENDBRANCH  10  11
ENDBRANCH   1  10
TORSDOF 3
ENDMDL
MODEL 7
REMARK VINA RESULT:      -6.4      8.993     11.127
REMARK  3 active torsions:
REMARK  status: ('A' for Active; 'I' for Inactive)
REMARK    1  A    between atoms: C_1  and  C_6 
REMARK    2  A    between atoms: C_6  and  C_10 
REMARK    3  A    between atoms: C_10  and  C_12 
ROOT
HETATM    1  C   UNK N   1      30.520 -18.468 -78.171  0.00  0.00    -0.033 C 
HETATM    2  C   UNK N   1      31.623 -17.367 -78.283  0.00  0.00    -0.002 C 
HETATM    3  C   UNK N   1      30.049 -17.685 -76.912  0.00  0.00     0.023 C 
HETATM    4  C   UNK N   1      30.653 -16.407 -77.542  0.00  0.00     0.015 C 
HETATM    5  C   UNK N   1      32.809 -17.642 -77.298  0.00  0.00     0.033 C 
HETATM    6  C   UNK N   1      30.943 -18.027 -75.718  0.00  0.00    -0.083 C 
HETATM    7  C   UNK N   1      29.506 -18.357 -79.355  0.00  0.00     0.016 C 
HETATM    8  C   UNK N   1      32.285 -17.998 -75.912  0.00  0.00    -0.024 C 
HETATM    9  C   UNK N   1      30.344 -18.372 -74.386  0.00  0.00     0.043 C 
ENDROOT
BRANCH   1  10
HETATM   10  C   UNK N   1      30.960 -19.967 -78.007  0.00  0.00     0.014 C 
BRANCH  10  11
HETATM   11  C   UNK N   1      31.319 -20.639 -79.348  0.00  0.00     0.028 C 
BRANCH  11  12
HETATM   12  C   UNK N   1      32.759 -20.416 -79.754  0.00  0.00    -0.025 C 
HETATM   13  C   UNK N   1      33.173 -19.639 -80.785  0.00  0.00    -0.091 C 
HETATM   14  C   UNK N   1      34.649 -19.496 -81.056  0.00  0.00     0.042 C 
HETATM   15  C   UNK N   1      32.234 -18.860 -81.676  0.00  0.00     0.042 C 
ENDBRANCH  11  12
ENDBRANCH  10  11
ENDBRANCH   1  10
TORSDOF 3
ENDMDL
MODEL 8
REMARK VINA RESULT:      -6.3      1.378      5.973
REMARK  3 active torsions:
REMARK  status: ('A' for Active; 'I' for Inactive)
REMARK    1  A    between atoms: C_1  and  C_6 
REMARK    2  A    between atoms: C_6  and  C_10 
REMARK    3  A    between atoms: C_10  and  C_12 
ROOT
HETATM    1  C   UNK N   1      36.666 -22.233 -73.427  0.00  0.00    -0.033 C 
HETATM    2  C   UNK N   1      37.185 -20.760 -73.414  0.00  0.00    -0.002 C 
HETATM    3  C   UNK N   1      35.571 -21.719 -72.448  0.00  0.00     0.023 C 
HETATM    4  C   UNK N   1      35.735 -20.317 -73.081  0.00  0.00     0.015 C 
HETATM    5  C   UNK N   1      38.041 -20.465 -72.136  0.00  0.00     0.033 C 
HETATM    6  C   UNK N   1      36.145 -21.611 -71.033  0.00  0.00    -0.083 C 
HETATM    7  C   UNK N   1      36.084 -22.603 -74.829  0.00  0.00     0.016 C 
HETATM    8  C   UNK N   1      37.344 -20.994 -70.888  0.00  0.00    -0.024 C 
HETATM    9  C   UNK N   1      35.393 -22.164 -69.858  0.00  0.00     0.043 C 
ENDROOT
BRANCH   1  10
HETATM   10  C   UNK N   1      37.628 -23.380 -72.949  0.00  0.00     0.014 C 
BRANCH  10  11
HETATM   11  C   UNK N   1      37.751 -24.528 -73.973  0.00  0.00     0.028 C 
BRANCH  11  12
HETATM   12  C   UNK N   1      39.042 -25.304 -73.836  0.00  0.00    -0.025 C 
HETATM   13  C   UNK N   1      39.885 -25.612 -74.853  0.00  0.00    -0.091 C 
HETATM   14  C   UNK N   1      41.150 -26.378 -74.557  0.00  0.00     0.042 C 
HETATM   15  C   UNK N   1      39.654 -25.196 -76.286  0.00  0.00     0.042 C 
ENDBRANCH  11  12
ENDBRANCH  10  11
ENDBRANCH   1  10
TORSDOF 3
ENDMDL
MODEL 9
REMARK VINA RESULT:      -6.2      9.001     11.531
REMARK  3 active torsions:
REMARK  status: ('A' for Active; 'I' for Inactive)
REMARK    1  A    between atoms: C_1  and  C_6 
REMARK    2  A    between atoms: C_6  and  C_10 
REMARK    3  A    between atoms: C_10  and  C_12 
ROOT
HETATM    1  C   UNK N   1      30.464 -19.539 -78.616  0.00  0.00    -0.033 C 
HETATM    2  C   UNK N   1      30.232 -18.291 -79.527  0.00  0.00    -0.002 C 
HETATM    3  C   UNK N   1      29.490 -18.837 -77.627  0.00  0.00     0.023 C 
HETATM    4  C   UNK N   1      28.849 -18.126 -78.842  0.00  0.00     0.015 C 
HETATM    5  C   UNK N   1      31.102 -17.074 -79.063  0.00  0.00     0.033 C 
HETATM    6  C   UNK N   1      30.232 -17.749 -76.846  0.00  0.00    -0.083 C 
HETATM    7  C   UNK N   1      29.839 -20.818 -79.260  0.00  0.00     0.016 C 
HETATM    8  C   UNK N   1      31.009 -16.891 -77.553  0.00  0.00    -0.024 C 
HETATM    9  C   UNK N   1      30.089 -17.642 -75.357  0.00  0.00     0.043 C 
ENDROOT
BRANCH   1  10
HETATM   10  C   UNK N   1      31.924 -19.865 -78.135  0.00  0.00     0.014 C 
BRANCH  10  11
HETATM   11  C   UNK N   1      32.720 -20.705 -79.155  0.00  0.00     0.028 C 
BRANCH  11  12
HETATM   12  C   UNK N   1      33.534 -19.860 -80.109  0.00  0.00    -0.025 C 
HETATM   13  C   UNK N   1      33.276 -19.697 -81.431  0.00  0.00    -0.091 C 
HETATM   14  C   UNK N   1      34.169 -18.803 -82.253  0.00  0.00     0.042 C 
HETATM   15  C   UNK N   1      32.106 -20.336 -82.140  0.00  0.00     0.042 C 
ENDBRANCH  11  12
ENDBRANCH  10  11
ENDBRANCH   1  10
TORSDOF 3
ENDMDL
